*Heading
** Job name: Job-1 Model name: Model-1
** Generated by: Abaqus/CAE 2021
*Preprint, echo=NO, model=NO, history=NO, contact=NO
**
** PARTS
**
*Part, name=PART-SOIL
*Node
      1, 0.0250000004, 0.0250000004, 0.0250000004
      2, 0.0250000004, 0.0125000002, 0.0250000004
      3, 0.0250000004,           0., 0.0250000004
      4, 0.0250000004, 0.0250000004, 0.0125000002
      5, 0.0250000004, 0.0125000002, 0.0125000002
      6, 0.0250000004,           0., 0.0125000002
      7, 0.0250000004, 0.0250000004,           0.
      8, 0.0250000004, 0.0125000002,           0.
      9, 0.0250000004,           0.,           0.
     10, 0.0125000002, 0.0250000004, 0.0250000004
     11, 0.0125000002, 0.0125000002, 0.0250000004
     12, 0.0125000002,           0., 0.0250000004
     13, 0.0125000002, 0.0250000004, 0.0125000002
     14, 0.0125000002, 0.0125000002, 0.0125000002
     15, 0.0125000002,           0., 0.0125000002
     16, 0.0125000002, 0.0250000004,           0.
     17, 0.0125000002, 0.0125000002,           0.
     18, 0.0125000002,           0.,           0.
     19,           0., 0.0250000004, 0.0250000004
     20,           0., 0.0125000002, 0.0250000004
** ... 7 like lines cut
*Element, type=C3D8R
1, 10, 11, 14, 13,  1,  2,  5,  4
2, 11, 12, 15, 14,  2,  3,  6,  5
3, 13, 14, 17, 16,  4,  5,  8,  7
4, 14, 15, 18, 17,  5,  6,  9,  8
5, 19, 20, 23, 22, 10, 11, 14, 13
6, 20, 21, 24, 23, 11, 12, 15, 14
7, 22, 23, 26, 25, 13, 14, 17, 16
8, 23, 24, 27, 26, 14, 15, 18, 17
*Nset, nset=SET-SOIL, generate
  1,  27,   1
*Elset, elset=SET-SOIL, generate
 1,  8,  1
*Nset, nset=SET-SOIL-X0, generate
 19,  27,   1
*Elset, elset=SET-SOIL-X0, generate
 5,  8,  1
*Nset, nset=SET-SOIL-Y0, generate
  3,  27,   3
*Elset, elset=SET-SOIL-Y0, generate
 2,  8,  2
*Nset, nset=SET-SOIL-Z0
  7,  8,  9, 16, 17, 18, 25, 26, 27
*Elset, elset=SET-SOIL-Z0
 3, 4, 7, 8
*Nset, nset=SET-SOIL-X1, generate
 1,  9,  1
*Elset, elset=SET-SOIL-X1, generate
 1,  4,  1
*Nset, nset=SET-SOIL-Y1, generate
  1,  25,   3
*Elset, elset=SET-SOIL-Y1, generate
 1,  7,  2
*Nset, nset=SET-SOIL-Z1
  1,  2,  3, 10, 11, 12, 19, 20, 21
*Elset, elset=SET-SOIL-Z1
 1, 2, 5, 6
*Elset, elset=_SURFACE-SOIL-Z0_S5, internal
 3, 4, 7, 8
*Surface, type=ELEMENT, name=SURFACE-SOIL-Z0
_SURFACE-SOIL-Z0_S5, S5
*Elset, elset=_SURFACE-SOIL-Z1_S3, internal
 1, 2, 5, 6
*Surface, type=ELEMENT, name=SURFACE-SOIL-Z1
_SURFACE-SOIL-Z1_S3, S3
** Section: SECTION-SOIL
*Solid Section, elset=SET-SOIL, controls=EC-1, material=MATERIAL-SOIL
,
*End Part
**  
*Part, name=PART-SOLID
*Node
      1, 0.0500000007, 0.0500000007, 0.0500000007
      2, 0.0500000007, 0.0250000004, 0.0500000007
      3, 0.0500000007,           0., 0.0500000007
      4, 0.0500000007, 0.0500000007, 0.0250000004
      5, 0.0500000007, 0.0250000004, 0.0250000004
      6, 0.0500000007,           0., 0.0250000004
      7, 0.0500000007, 0.0500000007,           0.
      8, 0.0500000007, 0.0250000004,           0.
      9, 0.0500000007,           0.,           0.
     10, 0.0250000004, 0.0500000007, 0.0500000007
     11, 0.0250000004, 0.0250000004, 0.0500000007
     12, 0.0250000004,           0., 0.0500000007
     13, 0.0250000004, 0.0500000007, 0.0250000004
     14, 0.0250000004, 0.0250000004, 0.0250000004
     15, 0.0250000004,           0., 0.0250000004
     16, 0.0250000004, 0.0500000007,           0.
     17, 0.0250000004, 0.0250000004,           0.
     18, 0.0250000004,           0.,           0.
     19,           0., 0.0500000007, 0.0500000007
     20,           0., 0.0250000004, 0.0500000007
** ... 7 like lines cut
*Element, type=C3D8R
1, 10, 11, 14, 13,  1,  2,  5,  4
2, 11, 12, 15, 14,  2,  3,  6,  5
3, 13, 14, 17, 16,  4,  5,  8,  7
4, 14, 15, 18, 17,  5,  6,  9,  8
5, 19, 20, 23, 22, 10, 11, 14, 13
6, 20, 21, 24, 23, 11, 12, 15, 14
7, 22, 23, 26, 25, 13, 14, 17, 16
8, 23, 24, 27, 26, 14, 15, 18, 17
*Node
     28,           0.,           0.,           0.
*Nset, nset=PART-SOLID-RefPt_, internal
28, 
*Nset, nset=SET-SOLID, generate
  1,  27,   1
*Elset, elset=SET-SOLID, generate
 1,  8,  1
*Nset, nset=SET-SOLID-X0, generate
 19,  27,   1
*Elset, elset=SET-SOLID-X0, generate
 5,  8,  1
*Nset, nset=SET-SOLID-Y0, generate
  3,  27,   3
*Elset, elset=SET-SOLID-Y0, generate
 2,  8,  2
*Nset, nset=SET-SOLID-Z0
  7,  8,  9, 16, 17, 18, 25, 26, 27
*Elset, elset=SET-SOLID-Z0
 3, 4, 7, 8
*Nset, nset=SET-SOLID-X1, generate
 1,  9,  1
*Elset, elset=SET-SOLID-X1, generate
 1,  4,  1
*Nset, nset=SET-SOLID-Y1, generate
  1,  25,   3
*Elset, elset=SET-SOLID-Y1, generate
 1,  7,  2
*Nset, nset=SET-SOLID-Z1
  1,  2,  3, 10, 11, 12, 19, 20, 21
*Elset, elset=SET-SOLID-Z1
 1, 2, 5, 6
*Nset, nset=SET-RP
 28,
*Elset, elset=_SURFACE-SOLID-Z0_S5, internal
 3, 4, 7, 8
*Surface, type=ELEMENT, name=SURFACE-SOLID-Z0
_SURFACE-SOLID-Z0_S5, S5
*Elset, elset=_SURFACE-SOLID-Z1_S3, internal
 1, 2, 5, 6
*Surface, type=ELEMENT, name=SURFACE-SOLID-Z1
_SURFACE-SOLID-Z1_S3, S3
** Section: SECTION-SOLID
*Solid Section, elset=SET-SOLID, controls=EC-1, material=MATERIAL-SOLID
,
*End Part
**  
**
** ASSEMBLY
**
*Assembly, name=Assembly
**  
*Instance, name=INSTANCE-SOIL, part=PART-SOIL
      0.0125,       0.0125,         0.05
*End Instance
**  
*Instance, name=INSTANCE-SOLID, part=PART-SOLID
*End Instance
**  
** Constraint: CONSTRAINT-SOLID
*Rigid Body, ref node=INSTANCE-SOLID.SET-RP, elset=INSTANCE-SOLID.SET-SOLID
*End Assembly
** 
** ELEMENT CONTROLS
** 
*Section Controls, name=EC-1, hourglass=ENHANCED
1., 1., 1.
** 
** MATERIALS
** 
*Material, name=MATERIAL-SOIL
*Elastic
40000.,0.
*Material, name=MATERIAL-SOLID
*Elastic
 2e+08,0.
** 
** INTERACTION PROPERTIES
** 
*Surface Interaction, name=IntProp-1
1.,
*Friction, user, depvar=28, properties=12
0.,    250.,    5.19,    0.89,   0.147,   0.424,    31.2,    7.57
    2.06,    0.46,  0.5771, 0.00115
*Surface Behavior, pressure-overclosure=HARD
** 
** BOUNDARY CONDITIONS
** 
** Name: BC-RP Type: Displacement/Rotation
*Boundary
INSTANCE-SOLID.SET-RP, 1, 1
INSTANCE-SOLID.SET-RP, 2, 2
INSTANCE-SOLID.SET-RP, 3, 3
INSTANCE-SOLID.SET-RP, 4, 4
INSTANCE-SOLID.SET-RP, 5, 5
INSTANCE-SOLID.SET-RP, 6, 6
** Name: BC-SOIL-X0 Type: Displacement/Rotation
*Boundary
INSTANCE-SOIL.SET-SOIL-X0, 1, 1
** Name: BC-SOIL-X1 Type: Displacement/Rotation
*Boundary
INSTANCE-SOIL.SET-SOIL-X1, 1, 1
** Name: BC-SOIL-Y0 Type: Displacement/Rotation
*Boundary
INSTANCE-SOIL.SET-SOIL-Y0, 2, 2
** Name: BC-SOIL-Y1 Type: Displacement/Rotation
*Boundary
INSTANCE-SOIL.SET-SOIL-Y1, 2, 2
** 
** PREDEFINED FIELDS
** 
** Name: SOIL-PREDEFINED-STRESS   Type: Stress
*Initial Conditions, type=STRESS
INSTANCE-SOIL.SET-SOIL, -310., -310., -310., 0., 0., 0.
** 
** INTERACTIONS
** 
** Interaction: Int-1
*Contact Pair, interaction=IntProp-1, type=SURFACE TO SURFACE
INSTANCE-SOIL.SURFACE-SOIL-Z0, INSTANCE-SOLID.SURFACE-SOLID-Z1
** ----------------------------------------------------------------
** 
** STEP: INITIAL-STRESS
** 
*Step, name=INITIAL-STRESS, nlgeom=NO, unsymm=YES
*Static
1., 1., 1e-05, 1.
** 
** LOADS
** 
** Name: SOIL-VERTICAL-PRESSURE   Type: Pressure
*Dsload
INSTANCE-SOIL.SURFACE-SOIL-Z1, P, 310.
** 
** OUTPUT REQUESTS
** 
*Restart, write, frequency=0
** 
** FIELD OUTPUT: F-Output-1
** 
*Output, field
*Node Output
RF, RM, RT, U
*Element Output, directions=YES
E, LE, P, S
*Contact Output
CDISP, CFORCE, CNAREA, CSTATUS, CSTRESS
    *Contact Output
    CDISP, CFORCE, CNAREA, CSTATUS, CSTRESS, SDV
*End Step
** ----------------------------------------------------------------
** 
** STEP: SHEAR
** 
*Step, name=SHEAR, nlgeom=NO, unsymm=YES
*Static
1., 1., 1e-05, 1.
** 
** BOUNDARY CONDITIONS
** 
** Name: BC-RP Type: Displacement/Rotation
*Boundary
INSTANCE-SOLID.SET-RP, 1, 1, 0.006
INSTANCE-SOLID.SET-RP, 2, 2
INSTANCE-SOLID.SET-RP, 3, 3
INSTANCE-SOLID.SET-RP, 4, 4
INSTANCE-SOLID.SET-RP, 5, 5
INSTANCE-SOLID.SET-RP, 6, 6
** 
** OUTPUT REQUESTS
** 
*Restart, write, frequency=0
** 
** FIELD OUTPUT: F-Output-1
** 
*Output, field
*Node Output
RF, RM, RT, U
*Element Output, directions=YES
E, LE, P, S
*Contact Output
CDISP, CFORCE, CNAREA, CSTATUS, CSTRESS
    *Contact Output
    CDISP, CFORCE, CNAREA, CSTATUS, CSTRESS, SDV
*Output, history
*Node Output, nset=INSTANCE-SOLID.SET-RP
RF1, U1
*End Step
