*Heading
** Job name: Job-1 Model name: Model-1
** Generated by: Abaqus/CAE 2021
*Preprint, echo=NO, model=NO, history=NO, contact=NO
**
** PARTS
**
*Part, name=PART-SOIL
*Node
      1, 0.0250000004, 0.0250000004, 0.0250000004
      2, 0.0250000004, 0.0166666675, 0.0250000004
      3, 0.0250000004, 0.00833333377, 0.0250000004
      4, 0.0250000004,           0., 0.0250000004
      5, 0.0250000004, 0.0250000004, 0.0166666675
      6, 0.0250000004, 0.0166666675, 0.0166666675
      7, 0.0250000004, 0.00833333377, 0.0166666675
      8, 0.0250000004,           0., 0.0166666675
      9, 0.0250000004, 0.0250000004, 0.00833333377
     10, 0.0250000004, 0.0166666675, 0.00833333377
     11, 0.0250000004, 0.00833333377, 0.00833333377
     12, 0.0250000004,           0., 0.00833333377
     13, 0.0250000004, 0.0250000004,           0.
     14, 0.0250000004, 0.0166666675,           0.
     15, 0.0250000004, 0.00833333377,           0.
     16, 0.0250000004,           0.,           0.
     17, 0.0166666675, 0.0250000004, 0.0250000004
     18, 0.0166666675, 0.0166666675, 0.0250000004
     19, 0.0166666675, 0.00833333377, 0.0250000004
     20, 0.0166666675,           0., 0.0250000004
** ... 44 like lines cut
*Element, type=C3D8R
 1, 17, 18, 22, 21,  1,  2,  6,  5
 2, 18, 19, 23, 22,  2,  3,  7,  6
 3, 19, 20, 24, 23,  3,  4,  8,  7
 4, 21, 22, 26, 25,  5,  6, 10,  9
 5, 22, 23, 27, 26,  6,  7, 11, 10
 6, 23, 24, 28, 27,  7,  8, 12, 11
 7, 25, 26, 30, 29,  9, 10, 14, 13
 8, 26, 27, 31, 30, 10, 11, 15, 14
 9, 27, 28, 32, 31, 11, 12, 16, 15
10, 33, 34, 38, 37, 17, 18, 22, 21
11, 34, 35, 39, 38, 18, 19, 23, 22
12, 35, 36, 40, 39, 19, 20, 24, 23
13, 37, 38, 42, 41, 21, 22, 26, 25
14, 38, 39, 43, 42, 22, 23, 27, 26
15, 39, 40, 44, 43, 23, 24, 28, 27
16, 41, 42, 46, 45, 25, 26, 30, 29
17, 42, 43, 47, 46, 26, 27, 31, 30
18, 43, 44, 48, 47, 27, 28, 32, 31
19, 49, 50, 54, 53, 33, 34, 38, 37
20, 50, 51, 55, 54, 34, 35, 39, 38
** ... 7 like lines cut
*Nset, nset=SET-SOIL, generate
  1,  64,   1
*Elset, elset=SET-SOIL, generate
  1,  27,   1
*Nset, nset=SET-SOIL-X0, generate
 49,  64,   1
*Elset, elset=SET-SOIL-X0, generate
 19,  27,   1
*Nset, nset=SET-SOIL-Y0, generate
  4,  64,   4
*Elset, elset=SET-SOIL-Y0, generate
  3,  27,   3
*Nset, nset=SET-SOIL-Z0
 13, 14, 15, 16, 29, 30, 31, 32, 45, 46, 47, 48, 61, 62, 63, 64
*Elset, elset=SET-SOIL-Z0
  7,  8,  9, 16, 17, 18, 25, 26, 27
*Nset, nset=SET-SOIL-X1, generate
  1,  16,   1
*Elset, elset=SET-SOIL-X1, generate
 1,  9,  1
*Nset, nset=SET-SOIL-Y1, generate
  1,  61,   4
*Elset, elset=SET-SOIL-Y1, generate
  1,  25,   3
*Nset, nset=SET-SOIL-Z1
  1,  2,  3,  4, 17, 18, 19, 20, 33, 34, 35, 36, 49, 50, 51, 52
*Elset, elset=SET-SOIL-Z1
  1,  2,  3, 10, 11, 12, 19, 20, 21
*Elset, elset=_SURFACE-SOIL-Z0_S5, internal
  7,  8,  9, 16, 17, 18, 25, 26, 27
*Surface, type=ELEMENT, name=SURFACE-SOIL-Z0
_SURFACE-SOIL-Z0_S5, S5
*Elset, elset=_SURFACE-SOIL-Z1_S3, internal
  1,  2,  3, 10, 11, 12, 19, 20, 21
*Surface, type=ELEMENT, name=SURFACE-SOIL-Z1
_SURFACE-SOIL-Z1_S3, S3
** Section: SECTION-SOIL
*Solid Section, elset=SET-SOIL, controls=EC-1, material=MATERIAL-SOIL
,
*End Part
**  
*Part, name=PART-SOLID
*Node
      1, 0.0500000007, 0.0500000007, 0.0500000007
      2, 0.0500000007, 0.0399999991, 0.0500000007
      3, 0.0500000007, 0.0299999993, 0.0500000007
      4, 0.0500000007, 0.0199999996, 0.0500000007
      5, 0.0500000007, 0.00999999978, 0.0500000007
      6, 0.0500000007,           0., 0.0500000007
      7, 0.0500000007, 0.0500000007, 0.0399999991
      8, 0.0500000007, 0.0399999991, 0.0399999991
      9, 0.0500000007, 0.0299999993, 0.0399999991
     10, 0.0500000007, 0.0199999996, 0.0399999991
     11, 0.0500000007, 0.00999999978, 0.0399999991
     12, 0.0500000007,           0., 0.0399999991
     13, 0.0500000007, 0.0500000007, 0.0299999993
     14, 0.0500000007, 0.0399999991, 0.0299999993
     15, 0.0500000007, 0.0299999993, 0.0299999993
     16, 0.0500000007, 0.0199999996, 0.0299999993
     17, 0.0500000007, 0.00999999978, 0.0299999993
     18, 0.0500000007,           0., 0.0299999993
     19, 0.0500000007, 0.0500000007, 0.0199999996
     20, 0.0500000007, 0.0399999991, 0.0199999996
** ... 196 like lines cut
*Element, type=C3D8R
  1,  37,  38,  44,  43,   1,   2,   8,   7
  2,  38,  39,  45,  44,   2,   3,   9,   8
  3,  39,  40,  46,  45,   3,   4,  10,   9
  4,  40,  41,  47,  46,   4,   5,  11,  10
  5,  41,  42,  48,  47,   5,   6,  12,  11
  6,  43,  44,  50,  49,   7,   8,  14,  13
  7,  44,  45,  51,  50,   8,   9,  15,  14
  8,  45,  46,  52,  51,   9,  10,  16,  15
  9,  46,  47,  53,  52,  10,  11,  17,  16
 10,  47,  48,  54,  53,  11,  12,  18,  17
 11,  49,  50,  56,  55,  13,  14,  20,  19
 12,  50,  51,  57,  56,  14,  15,  21,  20
 13,  51,  52,  58,  57,  15,  16,  22,  21
 14,  52,  53,  59,  58,  16,  17,  23,  22
 15,  53,  54,  60,  59,  17,  18,  24,  23
 16,  55,  56,  62,  61,  19,  20,  26,  25
 17,  56,  57,  63,  62,  20,  21,  27,  26
 18,  57,  58,  64,  63,  21,  22,  28,  27
 19,  58,  59,  65,  64,  22,  23,  29,  28
 20,  59,  60,  66,  65,  23,  24,  30,  29
** ... 105 like lines cut
*Node
    217,           0.,           0.,           0.
*Nset, nset=PART-SOLID-RefPt_, internal
217, 
*Nset, nset=SET-SOLID, generate
   1,  216,    1
*Elset, elset=SET-SOLID, generate
   1,  125,    1
*Nset, nset=SET-SOLID-X0, generate
 181,  216,    1
*Elset, elset=SET-SOLID-X0, generate
 101,  125,    1
*Nset, nset=SET-SOLID-Y0, generate
   6,  216,    6
*Elset, elset=SET-SOLID-Y0, generate
   5,  125,    5
*Nset, nset=SET-SOLID-Z0
  31,  32,  33,  34,  35,  36,  67,  68,  69,  70,  71,  72, 103, 104, 105, 106
 107, 108, 139, 140, 141, 142, 143, 144, 175, 176, 177, 178, 179, 180, 211, 212
 213, 214, 215, 216
*Elset, elset=SET-SOLID-Z0
  21,  22,  23,  24,  25,  46,  47,  48,  49,  50,  71,  72,  73,  74,  75,  96
  97,  98,  99, 100, 121, 122, 123, 124, 125
*Nset, nset=SET-SOLID-X1, generate
  1,  36,   1
*Elset, elset=SET-SOLID-X1, generate
  1,  25,   1
*Nset, nset=SET-SOLID-Y1, generate
   1,  211,    6
*Elset, elset=SET-SOLID-Y1, generate
   1,  121,    5
*Nset, nset=SET-SOLID-Z1
   1,   2,   3,   4,   5,   6,  37,  38,  39,  40,  41,  42,  73,  74,  75,  76
  77,  78, 109, 110, 111, 112, 113, 114, 145, 146, 147, 148, 149, 150, 181, 182
 183, 184, 185, 186
*Elset, elset=SET-SOLID-Z1
   1,   2,   3,   4,   5,  26,  27,  28,  29,  30,  51,  52,  53,  54,  55,  76
  77,  78,  79,  80, 101, 102, 103, 104, 105
*Nset, nset=SET-RP
 217,
*Elset, elset=_SURFACE-SOLID-Z0_S5, internal
  21,  22,  23,  24,  25,  46,  47,  48,  49,  50,  71,  72,  73,  74,  75,  96
  97,  98,  99, 100, 121, 122, 123, 124, 125
*Surface, type=ELEMENT, name=SURFACE-SOLID-Z0
_SURFACE-SOLID-Z0_S5, S5
*Elset, elset=_SURFACE-SOLID-Z1_S3, internal
   1,   2,   3,   4,   5,  26,  27,  28,  29,  30,  51,  52,  53,  54,  55,  76
  77,  78,  79,  80, 101, 102, 103, 104, 105
*Surface, type=ELEMENT, name=SURFACE-SOLID-Z1
_SURFACE-SOLID-Z1_S3, S3
** Section: SECTION-SOLID
*Solid Section, elset=SET-SOLID, controls=EC-1, material=MATERIAL-SOLID
,
*End Part
**  
**
** ASSEMBLY
**
*Assembly, name=Assembly
**  
*Instance, name=INSTANCE-SOIL, part=PART-SOIL
      0.0125,       0.0125,         0.05
*End Instance
**  
*Instance, name=INSTANCE-SOLID, part=PART-SOLID
*End Instance
**  
** Constraint: RIGID-BODY-SOLID
*Rigid Body, ref node=INSTANCE-SOLID.SET-RP, elset=INSTANCE-SOLID.SET-SOLID
*End Assembly
** 
** ELEMENT CONTROLS
** 
*Section Controls, name=EC-1, hourglass=ENHANCED
1., 1., 1.
** 
** MATERIALS
** 
*Material, name=MATERIAL-SOIL
*Density
1700.,
*Elastic
40000.,0.
*Material, name=MATERIAL-SOLID
*Density
2000.,
*Elastic
 2e+08,0.
** 
** INTERACTION PROPERTIES
** 
*Surface Interaction, name=IntProp-1
1.,
*Friction
0.,
*Surface Behavior, pressure-overclosure=HARD
** 
** BOUNDARY CONDITIONS
** 
** Name: BC-RP Type: Displacement/Rotation
*Boundary
INSTANCE-SOLID.SET-RP, 1, 1
INSTANCE-SOLID.SET-RP, 2, 2
INSTANCE-SOLID.SET-RP, 3, 3
INSTANCE-SOLID.SET-RP, 4, 4
INSTANCE-SOLID.SET-RP, 5, 5
INSTANCE-SOLID.SET-RP, 6, 6
** Name: BC-SOIL-X0 Type: Displacement/Rotation
*Boundary
INSTANCE-SOIL.SET-SOIL-X0, 1, 1
** Name: BC-SOIL-X1 Type: Displacement/Rotation
*Boundary
INSTANCE-SOIL.SET-SOIL-X1, 1, 1
** Name: BC-SOIL-Y0 Type: Displacement/Rotation
*Boundary
INSTANCE-SOIL.SET-SOIL-Y0, 2, 2
** Name: BC-SOIL-Y1 Type: Displacement/Rotation
*Boundary
INSTANCE-SOIL.SET-SOIL-Y1, 2, 2
** 
** PREDEFINED FIELDS
** 
** Name: SOIL-PREDEFINED-STRESS   Type: Stress
*Initial Conditions, type=STRESS
INSTANCE-SOIL.SET-SOIL, -310., -310., -310., 0., 0., 0.
** 
** INTERACTIONS
** 
** Interaction: Int-1
*Contact Pair, interaction=IntProp-1, type=SURFACE TO SURFACE
INSTANCE-SOIL.SURFACE-SOIL-Z0, INSTANCE-SOLID.SURFACE-SOLID-Z1
** ----------------------------------------------------------------
** 
** STEP: INITIAL-STRESS
** 
*Step, name=INITIAL-STRESS, nlgeom=NO, unsymm=YES
*Static
0.001, 1., 1e-05, 1.
** 
** LOADS
** 
** Name: SOIL-VERTICAL-PRESSURE   Type: Pressure
*Dsload
INSTANCE-SOIL.SURFACE-SOIL-Z1, P, 310.
** 
** OUTPUT REQUESTS
** 
*Restart, write, frequency=0
*Output, field, frequency=0
*Output, history, frequency=0
*End Step
** ----------------------------------------------------------------
** 
** STEP: SHEAR
** 
*Step, name=SHEAR, nlgeom=NO, unsymm=YES
*Static
0.001, 1., 1e-05, 1.
** 
** BOUNDARY CONDITIONS
** 
** Name: BC-RP Type: Displacement/Rotation
*Boundary
INSTANCE-SOLID.SET-RP, 1, 1, 0.006
INSTANCE-SOLID.SET-RP, 2, 2
INSTANCE-SOLID.SET-RP, 3, 3
INSTANCE-SOLID.SET-RP, 4, 4
INSTANCE-SOLID.SET-RP, 5, 5
INSTANCE-SOLID.SET-RP, 6, 6
** 
** OUTPUT REQUESTS
** 
*Restart, write, frequency=0
** 
** FIELD OUTPUT: F-Output-1
** 
*Output, field, frequency=50
*Node Output
RF, RM, RT, U
*Element Output, directions=YES
E, LE, P, S
*Contact Output
CDISP, CFORCE, CNAREA, CSTATUS, CSTRESS
** 
** HISTORY OUTPUT: H-Output-1
** 
*Output, history
*Node Output, nset=INSTANCE-SOLID.SET-RP
RF1, U1
*End Step
