1

   Abaqus 2021                                  Date 29-Dec-2021   Time 13:49:53
   For use by Supplied by Team-SolidSQUAD under license from Dassault Systemes or its subsidiary.

                                                                                 
                                                                                 
 STEP    1     INCREMENT     1     STEP TIME    0.00    


                        S T E P       1     S T A T I C   A N A L Y S I S


                                                                                          

     AUTOMATIC TIME CONTROL WITH -
          A SUGGESTED INITIAL TIME INCREMENT OF                1.000E-03
          AND A TOTAL TIME PERIOD OF                            1.00    
          THE MINIMUM TIME INCREMENT ALLOWED IS                1.000E-05
          THE MAXIMUM TIME INCREMENT ALLOWED IS                 1.00    

     LINEAR EQUATION SOLVER TYPE         DIRECT SPARSE

 CONVERGENCE TOLERANCE PARAMETERS FOR FORCE    
     CRITERION FOR RESIDUAL FORCE     FOR A NONLINEAR PROBLEM          5.000E-03
     CRITERION FOR DISP.    CORRECTION IN A NONLINEAR PROBLEM          1.000E-02
     INITIAL VALUE OF TIME AVERAGE FORCE                               1.000E-02
     AVERAGE FORCE     IS TIME AVERAGE FORCE    
     ALTERNATE CRIT. FOR RESIDUAL FORCE     FOR A NONLINEAR PROBLEM    2.000E-02
     CRITERION FOR ZERO FORCE     RELATIVE TO TIME AVRG. FORCE         1.000E-05
     CRITERION FOR RESIDUAL FORCE     WHEN THERE IS ZERO FLUX          1.000E-05
     CRITERION FOR DISP.    CORRECTION WHEN THERE IS ZERO FLUX         1.000E-03
     CRITERION FOR RESIDUAL FORCE     FOR A LINEAR INCREMENT           1.000E-08
     FIELD CONVERSION RATIO                                             1.00    
     CRITERION FOR ZERO FORCE     REL. TO TIME AVRG. MAX. FORCE        1.000E-05
     CRITERION FOR ZERO DISP.    RELATIVE TO CHARACTERISTIC LENGTH     1.000E-08

 CONVERGENCE TOLERANCE PARAMETERS FOR MOMENT   
     CRITERION FOR RESIDUAL MOMENT    FOR A NONLINEAR PROBLEM          5.000E-03
     CRITERION FOR ROTATION CORRECTION IN A NONLINEAR PROBLEM          1.000E-02
     INITIAL VALUE OF TIME AVERAGE MOMENT                              1.000E-02
     AVERAGE MOMENT    IS TIME AVERAGE MOMENT   
     ALTERNATE CRIT. FOR RESIDUAL MOMENT    FOR A NONLINEAR PROBLEM    2.000E-02
     CRITERION FOR ZERO MOMENT    RELATIVE TO TIME AVRG. MOMENT        1.000E-05
     CRITERION FOR RESIDUAL MOMENT    WHEN THERE IS ZERO FLUX          1.000E-05
     CRITERION FOR ROTATION CORRECTION WHEN THERE IS ZERO FLUX         1.000E-03
     CRITERION FOR RESIDUAL MOMENT    FOR A LINEAR INCREMENT           1.000E-08
     FIELD CONVERSION RATIO                                             1.00    
     CRITERION FOR ZERO MOMENT    REL. TO TIME AVRG. MAX. MOMENT       1.000E-05

     VOLUMETRIC STRAIN COMPATIBILITY TOLERANCE FOR HYBRID SOLIDS       1.000E-05
     AXIAL STRAIN COMPATIBILITY TOLERANCE FOR HYBRID BEAMS             1.000E-05
     TRANS. SHEAR STRAIN COMPATIBILITY TOLERANCE FOR HYBRID BEAMS      1.000E-05
     SOFT CONTACT CONSTRAINT COMPATIBILITY TOLERANCE FOR P>P0          5.000E-03
     SOFT CONTACT CONSTRAINT COMPATIBILITY TOLERANCE FOR P=0.0         0.100    
     CONTACT FORCE ERROR TOLERANCE FOR CONVERT SDI=YES                 1.00    
     DISPLACEMENT COMPATIBILITY TOLERANCE FOR DCOUP ELEMENTS           1.000E-05
     ROTATION COMPATIBILITY TOLERANCE FOR DCOUP ELEMENTS               1.000E-05

 EQUILIBRIUM WILL BE CHECKED FOR SEVERE DISCONTINUITY ITERATIONS

 TIME INCREMENTATION CONTROL PARAMETERS:
     FIRST EQUILIBRIUM ITERATION FOR CONSECUTIVE DIVERGENCE CHECK              4
     EQUILIBRIUM ITERATION AT WHICH LOG. CONVERGENCE RATE CHECK BEGINS         8
     EQUILIBRIUM ITERATION AFTER WHICH ALTERNATE RESIDUAL IS USED              9
     MAXIMUM EQUILIBRIUM ITERATIONS ALLOWED                                   16
     EQUILIBRIUM ITERATION COUNT FOR CUT-BACK IN NEXT INCREMENT               10
     MAXIMUM EQUILIB. ITERS IN TWO INCREMENTS FOR TIME INCREMENT INCREASE      4
     MAXIMUM ITERATIONS FOR SEVERE DISCONTINUITIES                            50
     MAXIMUM ATTEMPTS ALLOWED IN AN INCREMENT                                  5
     MAXIMUM DISCON. ITERS IN TWO INCREMENTS FOR TIME INCREMENT INCREASE      50
     MAXIMUM CONTACT AUGMENTATIONS FOR *SURFACE BEHAVIOR,AUGMENTED LAGRANGE   50
     CUT-BACK FACTOR AFTER DIVERGENCE                                 0.2500    
     CUT-BACK FACTOR FOR TOO SLOW CONVERGENCE                         0.5000    
     CUT-BACK FACTOR AFTER TOO MANY EQUILIBRIUM ITERATIONS            0.7500    
     CUT-BACK FACTOR AFTER TOO MANY SEVERE DISCONTINUITY ITERATIONS   0.2500    
     CUT-BACK FACTOR AFTER PROBLEMS IN ELEMENT ASSEMBLY               0.2500    
     INCREASE FACTOR AFTER TWO INCREMENTS THAT CONVERGE QUICKLY        1.500    
     MAX. TIME INCREMENT INCREASE FACTOR ALLOWED                       1.500    
     MAX. TIME INCREMENT INCREASE FACTOR ALLOWED (DYNAMICS)            1.250    
     MAX. TIME INCREMENT INCREASE FACTOR ALLOWED (DIFFUSION)           2.000    
     MINIMUM TIME INCREMENT RATIO FOR EXTRAPOLATION TO OCCUR          0.1000    
     MAX. RATIO OF TIME INCREMENT TO STABILITY LIMIT                   1.000    
     FRACTION OF STABILITY LIMIT FOR NEW TIME INCREMENT               0.9500    
     TIME INCREMENT INCREASE FACTOR BEFORE A TIME POINT                1.000    

 CONTACT CONTROLS APPLIED TO ALL CONTACT PAIRS:
     GLOBAL STABILIZATION CONTROL IS NOT USED
     RELATIVE PENETRATION TOLERANCE FOR AUGMENTED LAGRANGE CONTACT:
          FINITE-SLIDING SURFACE-TO-SURFACE                            5.000E-02
          OTHERWISE                                                    1.000E-03

          PRINT OF INCREMENT NUMBER, TIME, ETC., EVERY    1  INCREMENTS

     THE MAXIMUM NUMBER OF INCREMENTS IN THIS STEP IS                     100

          UNSYMMETRIC MATRIX STORAGE AND SOLUTION WILL BE USED

     LINEAR EXTRAPOLATION WILL BE USED

     CHARACTERISTIC ELEMENT LENGTH     9.441E-03

     DETAILS REGARDING ACTUAL SOLUTION WAVEFRONT REQUESTED

     DETAILED OUTPUT OF DIAGNOSTICS TO DATABASE REQUESTED

     PRINT OF INCREMENT NUMBER, TIME, ETC., TO THE MESSAGE FILE EVERY     1  INCREMENTS

     COLLECTING MODEL CONSTRAINT INFORMATION FOR OVERCONSTRAINT CHECKS

     COLLECTING STEP CONSTRAINT INFORMATION FOR OVERCONSTRAINT CHECKS
 
     CONTACT INITIAL STRESS CALCULATIONS ARE TURNED ON IN ZEROINC


  INCREMENT     1 STARTS. ATTEMPT NUMBER  1, TIME INCREMENT  1.000E-03

  NUMBER OF EQUATIONS =       198     NUMBER OF RHS =    1
  NUMBER OF FLOATING PT. OPERATIONS =  1.12E+06

     CHECK POINT   START OF SOLVER    

     CHECK POINT  END OF SOLVER       

       ELAPSED USER TIME (SEC)      =   0.0000    
       ELAPSED SYSTEM TIME (SEC)    =   0.0000    
       ELAPSED TOTAL CPU TIME (SEC) =   0.0000    
       ELAPSED WALLCLOCK TIME (SEC) =          0

               CONVERGENCE CHECKS FOR EQUILIBRIUM ITERATION     1

   MAX. PENETRATION ERROR -1.66357E-18 AT NODE INSTANCE-SOIL.61 OF CONTACT PAIR 
   (ASSEMBLY_INSTANCE-SOIL_SURFACE-SOIL-Z0,ASSEMBLY_INSTANCE-SOLID_SURFACE-SOLID
   -Z1)
   MAX. CONTACT FORCE ERROR -172.030E-18   AT NODE INSTANCE-SOIL.47 OF CONTACT 
   PAIR 
   (ASSEMBLY_INSTANCE-SOIL_SURFACE-SOIL-Z0,ASSEMBLY_INSTANCE-SOLID_SURFACE-SOLID
   -Z1)
          THE CONTACT CONSTRAINTS HAVE CONVERGED.

 AVERAGE FORCE                      1.863E-06   TIME AVG. FORCE        1.06    
                                                (FROM MOMENT    FIELD)
 LARGEST RESIDUAL FORCE            -4.740E-17   AT NODE         46   DOF  3
   INSTANCE: INSTANCE-SOIL                                                                   
 LARGEST INCREMENT OF DISP.        -6.805E-13   AT NODE         61   DOF  3
   INSTANCE: INSTANCE-SOIL                                                                   
 LARGEST CORRECTION TO DISP.       -6.805E-13   AT NODE         61   DOF  3
   INSTANCE: INSTANCE-SOIL                                                                   
          THERE IS ZERO FORCE     EVERYWHERE

 AVERAGE MOMENT                      0.00       TIME AVG. MOMENT      1.000E-02
 ALL MOMENT    RESIDUALS ARE ZERO
 LARGEST INCREMENT OF ROTATION      4.844E-42   AT NODE        217   DOF  5
   INSTANCE: INSTANCE-SOLID                                                                  
 LARGEST CORRECTION TO ROTATION     4.844E-42   AT NODE        217   DOF  5
   INSTANCE: INSTANCE-SOLID                                                                  
          THERE IS ZERO MOMENT    EVERYWHERE

 ITERATION SUMMARY FOR THE INCREMENT:   1 TOTAL ITERATIONS, OF WHICH
   0 ARE SEVERE DISCONTINUITY ITERATIONS AND  1 ARE EQUILIBRIUM ITERATIONS.

 TIME INCREMENT COMPLETED  1.000E-03,  FRACTION OF STEP COMPLETED  1.000E-03
 STEP TIME COMPLETED       1.000E-03,  TOTAL TIME COMPLETED        1.000E-03


  INCREMENT     2 STARTS. ATTEMPT NUMBER  1, TIME INCREMENT  1.000E-03

  NUMBER OF EQUATIONS =       198     NUMBER OF RHS =    1
  NUMBER OF FLOATING PT. OPERATIONS =  1.12E+06

     CHECK POINT   START OF SOLVER    

     CHECK POINT  END OF SOLVER       

       ELAPSED USER TIME (SEC)      =   0.0000    
       ELAPSED SYSTEM TIME (SEC)    =   0.0000    
       ELAPSED TOTAL CPU TIME (SEC) =   0.0000    
       ELAPSED WALLCLOCK TIME (SEC) =          0

               CONVERGENCE CHECKS FOR EQUILIBRIUM ITERATION     1

   MAX. PENETRATION ERROR -3.67104E-18 AT NODE INSTANCE-SOIL.13 OF CONTACT PAIR 
   (ASSEMBLY_INSTANCE-SOIL_SURFACE-SOIL-Z0,ASSEMBLY_INSTANCE-SOLID_SURFACE-SOLID
   -Z1)
   MAX. CONTACT FORCE ERROR -235.002E-18   AT NODE INSTANCE-SOIL.47 OF CONTACT 
   PAIR 
   (ASSEMBLY_INSTANCE-SOIL_SURFACE-SOIL-Z0,ASSEMBLY_INSTANCE-SOLID_SURFACE-SOLID
   -Z1)
   PENETRATION ERROR OF -3.671E-18 ACCEPTED BASED ON ALTERNATIVE TOLERANCE OF  9.441E-11
          THE CONTACT CONSTRAINTS HAVE CONVERGED.

 AVERAGE FORCE                      3.726E-06   TIME AVG. FORCE        1.06    
                                                (FROM MOMENT    FIELD)
 LARGEST RESIDUAL FORCE             4.739E-17   AT NODE         47   DOF  3
   INSTANCE: INSTANCE-SOIL                                                                   
 LARGEST INCREMENT OF DISP.         6.778E-16   AT NODE         49   DOF  3
   INSTANCE: INSTANCE-SOIL                                                                   
 LARGEST CORRECTION TO DISP.        6.811E-13   AT NODE         49   DOF  3
   INSTANCE: INSTANCE-SOIL                                                                   
          THERE IS ZERO FORCE     EVERYWHERE

 AVERAGE MOMENT                      0.00       TIME AVG. MOMENT      1.000E-02
 ALL MOMENT    RESIDUALS ARE ZERO
 LARGEST INCREMENT OF ROTATION     -9.688E-42   AT NODE        217   DOF  4
   INSTANCE: INSTANCE-SOLID                                                                  
 LARGEST CORRECTION TO ROTATION    -4.844E-42   AT NODE        217   DOF  4
   INSTANCE: INSTANCE-SOLID                                                                  
          THERE IS ZERO MOMENT    EVERYWHERE
          TIME INCREMENT MAY NOW INCREASE TO    1.500E-03

 ITERATION SUMMARY FOR THE INCREMENT:   1 TOTAL ITERATIONS, OF WHICH
   0 ARE SEVERE DISCONTINUITY ITERATIONS AND  1 ARE EQUILIBRIUM ITERATIONS.

 TIME INCREMENT COMPLETED  1.000E-03,  FRACTION OF STEP COMPLETED  2.000E-03
 STEP TIME COMPLETED       2.000E-03,  TOTAL TIME COMPLETED        2.000E-03


  INCREMENT     3 STARTS. ATTEMPT NUMBER  1, TIME INCREMENT  1.500E-03

  NUMBER OF EQUATIONS =       198     NUMBER OF RHS =    1
  NUMBER OF FLOATING PT. OPERATIONS =  1.12E+06

     CHECK POINT   START OF SOLVER    

     CHECK POINT  END OF SOLVER       

       ELAPSED USER TIME (SEC)      =   0.0000    
       ELAPSED SYSTEM TIME (SEC)    =   0.0000    
       ELAPSED TOTAL CPU TIME (SEC) =   0.0000    
       ELAPSED WALLCLOCK TIME (SEC) =          0

               CONVERGENCE CHECKS FOR EQUILIBRIUM ITERATION     1

   MAX. PENETRATION ERROR 1.75675E-18 AT NODE INSTANCE-SOIL.61 OF CONTACT PAIR 
   (ASSEMBLY_INSTANCE-SOIL_SURFACE-SOIL-Z0,ASSEMBLY_INSTANCE-SOLID_SURFACE-SOLID
   -Z1)
   MAX. CONTACT FORCE ERROR 100.731E-18   AT NODE INSTANCE-SOIL.62 OF CONTACT 
   PAIR 
   (ASSEMBLY_INSTANCE-SOIL_SURFACE-SOIL-Z0,ASSEMBLY_INSTANCE-SOLID_SURFACE-SOLID
   -Z1)
          THE CONTACT CONSTRAINTS HAVE CONVERGED.

 AVERAGE FORCE                      6.520E-06   TIME AVG. FORCE        1.06    
                                                (FROM MOMENT    FIELD)
 LARGEST RESIDUAL FORCE             2.075E-18   AT NODE         46   DOF  3
   INSTANCE: INSTANCE-SOIL                                                                   
 LARGEST INCREMENT OF DISP.         1.026E-15   AT NODE         61   DOF  3
   INSTANCE: INSTANCE-SOIL                                                                   
 LARGEST CORRECTION TO DISP.        8.909E-18   AT NODE         61   DOF  3
   INSTANCE: INSTANCE-SOIL                                                                   
          THERE IS ZERO FORCE     EVERYWHERE

 AVERAGE MOMENT                      0.00       TIME AVG. MOMENT      1.000E-02
 ALL MOMENT    RESIDUALS ARE ZERO
 LARGEST INCREMENT OF ROTATION     -1.695E-41   AT NODE        217   DOF  4
   INSTANCE: INSTANCE-SOLID                                                                  
 LARGEST CORRECTION TO ROTATION    -2.422E-42   AT NODE        217   DOF  4
   INSTANCE: INSTANCE-SOLID                                                                  
          THERE IS ZERO MOMENT    EVERYWHERE
          TIME INCREMENT MAY NOW INCREASE TO    2.250E-03

 ITERATION SUMMARY FOR THE INCREMENT:   1 TOTAL ITERATIONS, OF WHICH
   0 ARE SEVERE DISCONTINUITY ITERATIONS AND  1 ARE EQUILIBRIUM ITERATIONS.

 TIME INCREMENT COMPLETED  1.500E-03,  FRACTION OF STEP COMPLETED  3.500E-03
 STEP TIME COMPLETED       3.500E-03,  TOTAL TIME COMPLETED        3.500E-03


  INCREMENT     4 STARTS. ATTEMPT NUMBER  1, TIME INCREMENT  2.250E-03

  NUMBER OF EQUATIONS =       198     NUMBER OF RHS =    1
  NUMBER OF FLOATING PT. OPERATIONS =  1.12E+06

     CHECK POINT   START OF SOLVER    

     CHECK POINT  END OF SOLVER       

       ELAPSED USER TIME (SEC)      =   0.0000    
       ELAPSED SYSTEM TIME (SEC)    =   0.0000    
       ELAPSED TOTAL CPU TIME (SEC) =   0.0000    
       ELAPSED WALLCLOCK TIME (SEC) =          0

               CONVERGENCE CHECKS FOR EQUILIBRIUM ITERATION     1

   MAX. PENETRATION ERROR -858.165E-21   AT NODE INSTANCE-SOIL.14 OF CONTACT 
   PAIR 
   (ASSEMBLY_INSTANCE-SOIL_SURFACE-SOIL-Z0,ASSEMBLY_INSTANCE-SOLID_SURFACE-SOLID
   -Z1)
   MAX. CONTACT FORCE ERROR -67.4204E-18  AT NODE INSTANCE-SOIL.14 OF CONTACT 
   PAIR 
   (ASSEMBLY_INSTANCE-SOIL_SURFACE-SOIL-Z0,ASSEMBLY_INSTANCE-SOLID_SURFACE-SOLID
   -Z1)
          THE CONTACT CONSTRAINTS HAVE CONVERGED.

 AVERAGE FORCE                      1.071E-05   TIME AVG. FORCE       1.071E-05
 LARGEST RESIDUAL FORCE             2.880E-18   AT NODE         38   DOF  3
   INSTANCE: INSTANCE-SOIL                                                                   
 LARGEST INCREMENT OF DISP.         1.536E-15   AT NODE         32   DOF  3
   INSTANCE: INSTANCE-SOIL                                                                   
 LARGEST CORRECTION TO DISP.       -5.612E-18   AT NODE         45   DOF  3
   INSTANCE: INSTANCE-SOIL                                                                   
          THE FORCE     EQUILIBRIUM RESPONSE WAS LINEAR IN THIS INCREMENT

 AVERAGE MOMENT                      0.00       TIME AVG. MOMENT      1.000E-02
 ALL MOMENT    RESIDUALS ARE ZERO
 LARGEST INCREMENT OF ROTATION      2.785E-41   AT NODE        217   DOF  5
   INSTANCE: INSTANCE-SOLID                                                                  
 LARGEST CORRECTION TO ROTATION     2.422E-42   AT NODE        217   DOF  5
   INSTANCE: INSTANCE-SOLID                                                                  
          THERE IS ZERO MOMENT    EVERYWHERE
          TIME INCREMENT MAY NOW INCREASE TO    3.375E-03

 ITERATION SUMMARY FOR THE INCREMENT:   1 TOTAL ITERATIONS, OF WHICH
   0 ARE SEVERE DISCONTINUITY ITERATIONS AND  1 ARE EQUILIBRIUM ITERATIONS.

 TIME INCREMENT COMPLETED  2.250E-03,  FRACTION OF STEP COMPLETED  5.750E-03
 STEP TIME COMPLETED       5.750E-03,  TOTAL TIME COMPLETED        5.750E-03


  INCREMENT     5 STARTS. ATTEMPT NUMBER  1, TIME INCREMENT  3.375E-03

  NUMBER OF EQUATIONS =       198     NUMBER OF RHS =    1
  NUMBER OF FLOATING PT. OPERATIONS =  1.12E+06

     CHECK POINT   START OF SOLVER    

     CHECK POINT  END OF SOLVER       

       ELAPSED USER TIME (SEC)      =   0.0000    
       ELAPSED SYSTEM TIME (SEC)    =   0.0000    
       ELAPSED TOTAL CPU TIME (SEC) =   0.0000    
       ELAPSED WALLCLOCK TIME (SEC) =          0

               CONVERGENCE CHECKS FOR EQUILIBRIUM ITERATION     1

   MAX. PENETRATION ERROR -4.11658E-18 AT NODE INSTANCE-SOIL.64 OF CONTACT PAIR 
   (ASSEMBLY_INSTANCE-SOIL_SURFACE-SOIL-Z0,ASSEMBLY_INSTANCE-SOLID_SURFACE-SOLID
   -Z1)
   MAX. CONTACT FORCE ERROR -394.484E-18   AT NODE INSTANCE-SOIL.47 OF CONTACT 
   PAIR 
   (ASSEMBLY_INSTANCE-SOIL_SURFACE-SOIL-Z0,ASSEMBLY_INSTANCE-SOLID_SURFACE-SOLID
   -Z1)
          THE CONTACT CONSTRAINTS HAVE CONVERGED.

 AVERAGE FORCE                      3.743E-05   TIME AVG. FORCE       2.407E-05
 LARGEST RESIDUAL FORCE            -2.812E-18   AT NODE         26   DOF  3
   INSTANCE: INSTANCE-SOIL                                                                   
 LARGEST INCREMENT OF DISP.         2.304E-15   AT NODE         64   DOF  3
   INSTANCE: INSTANCE-SOIL                                                                   
 LARGEST CORRECTION TO DISP.       -6.213E-18   AT NODE         48   DOF  3
   INSTANCE: INSTANCE-SOIL                                                                   
          THE FORCE     EQUILIBRIUM RESPONSE WAS LINEAR IN THIS INCREMENT

 AVERAGE MOMENT                      0.00       TIME AVG. MOMENT      1.000E-02
 ALL MOMENT    RESIDUALS ARE ZERO
 LARGEST INCREMENT OF ROTATION     -4.420E-41   AT NODE        217   DOF  4
   INSTANCE: INSTANCE-SOLID                                                                  
 LARGEST CORRECTION TO ROTATION    -2.422E-42   AT NODE        217   DOF  4
   INSTANCE: INSTANCE-SOLID                                                                  
          THERE IS ZERO MOMENT    EVERYWHERE
          TIME INCREMENT MAY NOW INCREASE TO    5.063E-03

 ITERATION SUMMARY FOR THE INCREMENT:   1 TOTAL ITERATIONS, OF WHICH
   0 ARE SEVERE DISCONTINUITY ITERATIONS AND  1 ARE EQUILIBRIUM ITERATIONS.

 TIME INCREMENT COMPLETED  3.375E-03,  FRACTION OF STEP COMPLETED  9.125E-03
 STEP TIME COMPLETED       9.125E-03,  TOTAL TIME COMPLETED        9.125E-03


  INCREMENT     6 STARTS. ATTEMPT NUMBER  1, TIME INCREMENT  5.063E-03

  NUMBER OF EQUATIONS =       198     NUMBER OF RHS =    1
  NUMBER OF FLOATING PT. OPERATIONS =  1.12E+06

     CHECK POINT   START OF SOLVER    

     CHECK POINT  END OF SOLVER       

       ELAPSED USER TIME (SEC)      =   0.0000    
       ELAPSED SYSTEM TIME (SEC)    =   0.0000    
       ELAPSED TOTAL CPU TIME (SEC) =   0.0000    
       ELAPSED WALLCLOCK TIME (SEC) =          0

               CONVERGENCE CHECKS FOR EQUILIBRIUM ITERATION     1

   MAX. PENETRATION ERROR 2.39444E-18 AT NODE INSTANCE-SOIL.45 OF CONTACT PAIR 
   (ASSEMBLY_INSTANCE-SOIL_SURFACE-SOIL-Z0,ASSEMBLY_INSTANCE-SOLID_SURFACE-SOLID
   -Z1)
   MAX. CONTACT FORCE ERROR 322.158E-18   AT NODE INSTANCE-SOIL.46 OF CONTACT 
   PAIR 
   (ASSEMBLY_INSTANCE-SOIL_SURFACE-SOIL-Z0,ASSEMBLY_INSTANCE-SOLID_SURFACE-SOLID
   -Z1)
          THE CONTACT CONSTRAINTS HAVE CONVERGED.

 AVERAGE FORCE                      5.819E-05   TIME AVG. FORCE       3.544E-05
 LARGEST RESIDUAL FORCE             1.952E-18   AT NODE         11   DOF  3
   INSTANCE: INSTANCE-SOIL                                                                   
 LARGEST INCREMENT OF DISP.         3.451E-15   AT NODE         63   DOF  3
   INSTANCE: INSTANCE-SOIL                                                                   
 LARGEST CORRECTION TO DISP.       -1.486E-17   AT NODE         45   DOF  3
   INSTANCE: INSTANCE-SOIL                                                                   
          THE FORCE     EQUILIBRIUM RESPONSE WAS LINEAR IN THIS INCREMENT

 AVERAGE MOMENT                      0.00       TIME AVG. MOMENT      1.000E-02
 ALL MOMENT    RESIDUALS ARE ZERO
 LARGEST INCREMENT OF ROTATION      6.872E-41   AT NODE        217   DOF  5
   INSTANCE: INSTANCE-SOLID                                                                  
 LARGEST CORRECTION TO ROTATION     2.422E-42   AT NODE        217   DOF  5
   INSTANCE: INSTANCE-SOLID                                                                  
          THERE IS ZERO MOMENT    EVERYWHERE
          TIME INCREMENT MAY NOW INCREASE TO    7.594E-03

 ITERATION SUMMARY FOR THE INCREMENT:   1 TOTAL ITERATIONS, OF WHICH
   0 ARE SEVERE DISCONTINUITY ITERATIONS AND  1 ARE EQUILIBRIUM ITERATIONS.

 TIME INCREMENT COMPLETED  5.063E-03,  FRACTION OF STEP COMPLETED  1.419E-02
 STEP TIME COMPLETED       1.419E-02,  TOTAL TIME COMPLETED        1.419E-02


  INCREMENT     7 STARTS. ATTEMPT NUMBER  1, TIME INCREMENT  7.594E-03

  NUMBER OF EQUATIONS =       198     NUMBER OF RHS =    1
  NUMBER OF FLOATING PT. OPERATIONS =  1.12E+06

     CHECK POINT   START OF SOLVER    

     CHECK POINT  END OF SOLVER       

       ELAPSED USER TIME (SEC)      =   0.0000    
       ELAPSED SYSTEM TIME (SEC)    =   0.0000    
       ELAPSED TOTAL CPU TIME (SEC) =   0.0000    
       ELAPSED WALLCLOCK TIME (SEC) =          0

               CONVERGENCE CHECKS FOR EQUILIBRIUM ITERATION     1

   MAX. PENETRATION ERROR -4.16740E-18 AT NODE INSTANCE-SOIL.16 OF CONTACT PAIR 
   (ASSEMBLY_INSTANCE-SOIL_SURFACE-SOIL-Z0,ASSEMBLY_INSTANCE-SOLID_SURFACE-SOLID
   -Z1)
   MAX. CONTACT FORCE ERROR -271.735E-18   AT NODE INSTANCE-SOIL.31 OF CONTACT 
   PAIR 
   (ASSEMBLY_INSTANCE-SOIL_SURFACE-SOIL-Z0,ASSEMBLY_INSTANCE-SOLID_SURFACE-SOLID
   -Z1)
          THE CONTACT CONSTRAINTS HAVE CONVERGED.

 AVERAGE FORCE                      8.934E-05   TIME AVG. FORCE       4.892E-05
 LARGEST RESIDUAL FORCE             2.345E-18   AT NODE         23   DOF  2
   INSTANCE: INSTANCE-SOIL                                                                   
 LARGEST INCREMENT OF DISP.         5.175E-15   AT NODE         31   DOF  3
   INSTANCE: INSTANCE-SOIL                                                                   
 LARGEST CORRECTION TO DISP.        1.446E-17   AT NODE         29   DOF  3
   INSTANCE: INSTANCE-SOIL                                                                   
          THE FORCE     EQUILIBRIUM RESPONSE WAS LINEAR IN THIS INCREMENT

 AVERAGE MOMENT                      0.00       TIME AVG. MOMENT      1.000E-02
 ALL MOMENT    RESIDUALS ARE ZERO
 LARGEST INCREMENT OF ROTATION      1.055E-40   AT NODE        217   DOF  5
   INSTANCE: INSTANCE-SOLID                                                                  
 LARGEST CORRECTION TO ROTATION     2.422E-42   AT NODE        217   DOF  5
   INSTANCE: INSTANCE-SOLID                                                                  
          THERE IS ZERO MOMENT    EVERYWHERE
          TIME INCREMENT MAY NOW INCREASE TO    1.139E-02

 ITERATION SUMMARY FOR THE INCREMENT:   1 TOTAL ITERATIONS, OF WHICH
   0 ARE SEVERE DISCONTINUITY ITERATIONS AND  1 ARE EQUILIBRIUM ITERATIONS.

 TIME INCREMENT COMPLETED  7.594E-03,  FRACTION OF STEP COMPLETED  2.178E-02
 STEP TIME COMPLETED       2.178E-02,  TOTAL TIME COMPLETED        2.178E-02


  INCREMENT     8 STARTS. ATTEMPT NUMBER  1, TIME INCREMENT  1.139E-02

  NUMBER OF EQUATIONS =       198     NUMBER OF RHS =    1
  NUMBER OF FLOATING PT. OPERATIONS =  1.12E+06

     CHECK POINT   START OF SOLVER    

     CHECK POINT  END OF SOLVER       

       ELAPSED USER TIME (SEC)      =   0.0000    
       ELAPSED SYSTEM TIME (SEC)    =   0.0000    
       ELAPSED TOTAL CPU TIME (SEC) =   0.0000    
       ELAPSED WALLCLOCK TIME (SEC) =          0

               CONVERGENCE CHECKS FOR EQUILIBRIUM ITERATION     1

   MAX. PENETRATION ERROR 4.31987E-18 AT NODE INSTANCE-SOIL.13 OF CONTACT PAIR 
   (ASSEMBLY_INSTANCE-SOIL_SURFACE-SOIL-Z0,ASSEMBLY_INSTANCE-SOLID_SURFACE-SOLID
   -Z1)
   MAX. CONTACT FORCE ERROR 465.212E-18   AT NODE INSTANCE-SOIL.46 OF CONTACT 
   PAIR 
   (ASSEMBLY_INSTANCE-SOIL_SURFACE-SOIL-Z0,ASSEMBLY_INSTANCE-SOLID_SURFACE-SOLID
   -Z1)
          THE CONTACT CONSTRAINTS HAVE CONVERGED.

 AVERAGE FORCE                      1.361E-04   TIME AVG. FORCE       6.634E-05
 LARGEST RESIDUAL FORCE            -3.524E-18   AT NODE         39   DOF  3
   INSTANCE: INSTANCE-SOIL                                                                   
 LARGEST INCREMENT OF DISP.         7.767E-15   AT NODE         64   DOF  3
   INSTANCE: INSTANCE-SOIL                                                                   
 LARGEST CORRECTION TO DISP.        1.314E-17   AT NODE         64   DOF  3
   INSTANCE: INSTANCE-SOIL                                                                   
          THE FORCE     EQUILIBRIUM RESPONSE WAS LINEAR IN THIS INCREMENT

 AVERAGE MOMENT                      0.00       TIME AVG. MOMENT      1.000E-02
 ALL MOMENT    RESIDUALS ARE ZERO
 LARGEST INCREMENT OF ROTATION     -1.607E-40   AT NODE        217   DOF  4
   INSTANCE: INSTANCE-SOLID                                                                  
 LARGEST CORRECTION TO ROTATION    -2.422E-42   AT NODE        217   DOF  4
   INSTANCE: INSTANCE-SOLID                                                                  
          THERE IS ZERO MOMENT    EVERYWHERE
          TIME INCREMENT MAY NOW INCREASE TO    1.709E-02

 ITERATION SUMMARY FOR THE INCREMENT:   1 TOTAL ITERATIONS, OF WHICH
   0 ARE SEVERE DISCONTINUITY ITERATIONS AND  1 ARE EQUILIBRIUM ITERATIONS.

 TIME INCREMENT COMPLETED  1.139E-02,  FRACTION OF STEP COMPLETED  3.317E-02
 STEP TIME COMPLETED       3.317E-02,  TOTAL TIME COMPLETED        3.317E-02


  INCREMENT     9 STARTS. ATTEMPT NUMBER  1, TIME INCREMENT  1.709E-02

  NUMBER OF EQUATIONS =       198     NUMBER OF RHS =    1
  NUMBER OF FLOATING PT. OPERATIONS =  1.12E+06

     CHECK POINT   START OF SOLVER    

     CHECK POINT  END OF SOLVER       

       ELAPSED USER TIME (SEC)      =   0.0000    
       ELAPSED SYSTEM TIME (SEC)    =   0.0000    
       ELAPSED TOTAL CPU TIME (SEC) =   0.0000    
       ELAPSED WALLCLOCK TIME (SEC) =          0

               CONVERGENCE CHECKS FOR EQUILIBRIUM ITERATION     1

   MAX. PENETRATION ERROR -4.96603E-18 AT NODE INSTANCE-SOIL.48 OF CONTACT PAIR 
   (ASSEMBLY_INSTANCE-SOIL_SURFACE-SOIL-Z0,ASSEMBLY_INSTANCE-SOLID_SURFACE-SOLID
   -Z1)
   MAX. CONTACT FORCE ERROR -390.149E-18   AT NODE INSTANCE-SOIL.48 OF CONTACT 
   PAIR 
   (ASSEMBLY_INSTANCE-SOIL_SURFACE-SOIL-Z0,ASSEMBLY_INSTANCE-SOLID_SURFACE-SOLID
   -Z1)
          THE CONTACT CONSTRAINTS HAVE CONVERGED.

 AVERAGE FORCE                      2.061E-04   TIME AVG. FORCE       8.964E-05
 LARGEST RESIDUAL FORCE            -3.090E-18   AT NODE         26   DOF  1
   INSTANCE: INSTANCE-SOIL                                                                   
 LARGEST INCREMENT OF DISP.         1.164E-14   AT NODE         14   DOF  3
   INSTANCE: INSTANCE-SOIL                                                                   
 LARGEST CORRECTION TO DISP.       -1.899E-17   AT NODE         64   DOF  3
   INSTANCE: INSTANCE-SOIL                                                                   
          THE FORCE     EQUILIBRIUM RESPONSE WAS LINEAR IN THIS INCREMENT

 AVERAGE MOMENT                      0.00       TIME AVG. MOMENT      1.000E-02
 ALL MOMENT    RESIDUALS ARE ZERO
 LARGEST INCREMENT OF ROTATION     -2.434E-40   AT NODE        217   DOF  4
   INSTANCE: INSTANCE-SOLID                                                                  
 LARGEST CORRECTION TO ROTATION     2.422E-42   AT NODE        217   DOF  5
   INSTANCE: INSTANCE-SOLID                                                                  
          THERE IS ZERO MOMENT    EVERYWHERE
          TIME INCREMENT MAY NOW INCREASE TO    2.563E-02

 ITERATION SUMMARY FOR THE INCREMENT:   1 TOTAL ITERATIONS, OF WHICH
   0 ARE SEVERE DISCONTINUITY ITERATIONS AND  1 ARE EQUILIBRIUM ITERATIONS.

 TIME INCREMENT COMPLETED  1.709E-02,  FRACTION OF STEP COMPLETED  5.026E-02
 STEP TIME COMPLETED       5.026E-02,  TOTAL TIME COMPLETED        5.026E-02


  INCREMENT    10 STARTS. ATTEMPT NUMBER  1, TIME INCREMENT  2.563E-02

  NUMBER OF EQUATIONS =       198     NUMBER OF RHS =    1
  NUMBER OF FLOATING PT. OPERATIONS =  1.12E+06

     CHECK POINT   START OF SOLVER    

     CHECK POINT  END OF SOLVER       

       ELAPSED USER TIME (SEC)      =   0.0000    
       ELAPSED SYSTEM TIME (SEC)    =   0.0000    
       ELAPSED TOTAL CPU TIME (SEC) =   0.0000    
       ELAPSED WALLCLOCK TIME (SEC) =          0

               CONVERGENCE CHECKS FOR EQUILIBRIUM ITERATION     1

   MAX. PENETRATION ERROR -5.26177E-18 AT NODE INSTANCE-SOIL.64 OF CONTACT PAIR 
   (ASSEMBLY_INSTANCE-SOIL_SURFACE-SOIL-Z0,ASSEMBLY_INSTANCE-SOLID_SURFACE-SOLID
   -Z1)
   MAX. CONTACT FORCE ERROR -681.733E-18   AT NODE INSTANCE-SOIL.30 OF CONTACT 
   PAIR 
   (ASSEMBLY_INSTANCE-SOIL_SURFACE-SOIL-Z0,ASSEMBLY_INSTANCE-SOLID_SURFACE-SOLID
   -Z1)
          THE CONTACT CONSTRAINTS HAVE CONVERGED.

 AVERAGE FORCE                      3.113E-04   TIME AVG. FORCE       1.213E-04
 LARGEST RESIDUAL FORCE             3.307E-18   AT NODE         23   DOF  1
   INSTANCE: INSTANCE-SOIL                                                                   
 LARGEST INCREMENT OF DISP.         1.746E-14   AT NODE         30   DOF  3
   INSTANCE: INSTANCE-SOIL                                                                   
 LARGEST CORRECTION TO DISP.        1.467E-17   AT NODE         64   DOF  3
   INSTANCE: INSTANCE-SOIL                                                                   
          THE FORCE     EQUILIBRIUM RESPONSE WAS LINEAR IN THIS INCREMENT

 AVERAGE MOMENT                      0.00       TIME AVG. MOMENT      1.000E-02
 ALL MOMENT    RESIDUALS ARE ZERO
 LARGEST INCREMENT OF ROTATION     -3.676E-40   AT NODE        217   DOF  4
   INSTANCE: INSTANCE-SOLID                                                                  
 LARGEST CORRECTION TO ROTATION    -2.422E-42   AT NODE        217   DOF  4
   INSTANCE: INSTANCE-SOLID                                                                  
          THERE IS ZERO MOMENT    EVERYWHERE
          TIME INCREMENT MAY NOW INCREASE TO    3.844E-02

 ITERATION SUMMARY FOR THE INCREMENT:   1 TOTAL ITERATIONS, OF WHICH
   0 ARE SEVERE DISCONTINUITY ITERATIONS AND  1 ARE EQUILIBRIUM ITERATIONS.

 TIME INCREMENT COMPLETED  2.563E-02,  FRACTION OF STEP COMPLETED  7.589E-02
 STEP TIME COMPLETED       7.589E-02,  TOTAL TIME COMPLETED        7.589E-02


  INCREMENT    11 STARTS. ATTEMPT NUMBER  1, TIME INCREMENT  3.844E-02

  NUMBER OF EQUATIONS =       198     NUMBER OF RHS =    1
  NUMBER OF FLOATING PT. OPERATIONS =  1.12E+06

     CHECK POINT   START OF SOLVER    

     CHECK POINT  END OF SOLVER       

       ELAPSED USER TIME (SEC)      =   0.0000    
       ELAPSED SYSTEM TIME (SEC)    =   0.0000    
       ELAPSED TOTAL CPU TIME (SEC) =   0.0000    
       ELAPSED WALLCLOCK TIME (SEC) =          0

               CONVERGENCE CHECKS FOR EQUILIBRIUM ITERATION     1

   MAX. PENETRATION ERROR 4.72935E-18 AT NODE INSTANCE-SOIL.63 OF CONTACT PAIR 
   (ASSEMBLY_INSTANCE-SOIL_SURFACE-SOIL-Z0,ASSEMBLY_INSTANCE-SOLID_SURFACE-SOLID
   -Z1)
   MAX. CONTACT FORCE ERROR 723.942E-18   AT NODE INSTANCE-SOIL.47 OF CONTACT 
   PAIR 
   (ASSEMBLY_INSTANCE-SOIL_SURFACE-SOIL-Z0,ASSEMBLY_INSTANCE-SOLID_SURFACE-SOLID
   -Z1)
          THE CONTACT CONSTRAINTS HAVE CONVERGED.

 AVERAGE FORCE                      4.689E-04   TIME AVG. FORCE       1.648E-04
 LARGEST RESIDUAL FORCE             1.735E-18   AT NODE         27   DOF  1
   INSTANCE: INSTANCE-SOIL                                                                   
 LARGEST INCREMENT OF DISP.         2.619E-14   AT NODE         48   DOF  3
   INSTANCE: INSTANCE-SOIL                                                                   
 LARGEST CORRECTION TO DISP.        1.747E-17   AT NODE         48   DOF  3
   INSTANCE: INSTANCE-SOIL                                                                   
          THE FORCE     EQUILIBRIUM RESPONSE WAS LINEAR IN THIS INCREMENT

 AVERAGE MOMENT                      0.00       TIME AVG. MOMENT      1.000E-02
 ALL MOMENT    RESIDUALS ARE ZERO
 LARGEST INCREMENT OF ROTATION      5.538E-40   AT NODE        217   DOF  5
   INSTANCE: INSTANCE-SOLID                                                                  
 LARGEST CORRECTION TO ROTATION     2.422E-42   AT NODE        217   DOF  5
   INSTANCE: INSTANCE-SOLID                                                                  
          THERE IS ZERO MOMENT    EVERYWHERE
          TIME INCREMENT MAY NOW INCREASE TO    5.767E-02

 ITERATION SUMMARY FOR THE INCREMENT:   1 TOTAL ITERATIONS, OF WHICH
   0 ARE SEVERE DISCONTINUITY ITERATIONS AND  1 ARE EQUILIBRIUM ITERATIONS.

 TIME INCREMENT COMPLETED  3.844E-02,  FRACTION OF STEP COMPLETED  0.114    
 STEP TIME COMPLETED       0.114    ,  TOTAL TIME COMPLETED        0.114    


  INCREMENT    12 STARTS. ATTEMPT NUMBER  1, TIME INCREMENT  5.767E-02

  NUMBER OF EQUATIONS =       198     NUMBER OF RHS =    1
  NUMBER OF FLOATING PT. OPERATIONS =  1.12E+06

     CHECK POINT   START OF SOLVER    

     CHECK POINT  END OF SOLVER       

       ELAPSED USER TIME (SEC)      =   0.0000    
       ELAPSED SYSTEM TIME (SEC)    =   0.0000    
       ELAPSED TOTAL CPU TIME (SEC) =   0.0000    
       ELAPSED WALLCLOCK TIME (SEC) =          0

               CONVERGENCE CHECKS FOR EQUILIBRIUM ITERATION     1

   MAX. PENETRATION ERROR -4.73153E-18 AT NODE INSTANCE-SOIL.13 OF CONTACT PAIR 
   (ASSEMBLY_INSTANCE-SOIL_SURFACE-SOIL-Z0,ASSEMBLY_INSTANCE-SOLID_SURFACE-SOLID
   -Z1)
   MAX. CONTACT FORCE ERROR -571.077E-18   AT NODE INSTANCE-SOIL.30 OF CONTACT 
   PAIR 
   (ASSEMBLY_INSTANCE-SOIL_SURFACE-SOIL-Z0,ASSEMBLY_INSTANCE-SOLID_SURFACE-SOLID
   -Z1)
          THE CONTACT CONSTRAINTS HAVE CONVERGED.

 AVERAGE FORCE                      7.054E-04   TIME AVG. FORCE       2.248E-04
 LARGEST RESIDUAL FORCE            -3.903E-18   AT NODE         23   DOF  3
   INSTANCE: INSTANCE-SOIL                                                                   
 LARGEST INCREMENT OF DISP.         3.929E-14   AT NODE         13   DOF  3
   INSTANCE: INSTANCE-SOIL                                                                   
 LARGEST CORRECTION TO DISP.       -1.449E-17   AT NODE         48   DOF  3
   INSTANCE: INSTANCE-SOIL                                                                   
          THE FORCE     EQUILIBRIUM RESPONSE WAS LINEAR IN THIS INCREMENT

 AVERAGE MOMENT                      0.00       TIME AVG. MOMENT      1.000E-02
 ALL MOMENT    RESIDUALS ARE ZERO
 LARGEST INCREMENT OF ROTATION     -8.331E-40   AT NODE        217   DOF  4
   INSTANCE: INSTANCE-SOLID                                                                  
 LARGEST CORRECTION TO ROTATION    -2.422E-42   AT NODE        217   DOF  4
   INSTANCE: INSTANCE-SOLID                                                                  
          THERE IS ZERO MOMENT    EVERYWHERE
          TIME INCREMENT MAY NOW INCREASE TO    8.650E-02

 ITERATION SUMMARY FOR THE INCREMENT:   1 TOTAL ITERATIONS, OF WHICH
   0 ARE SEVERE DISCONTINUITY ITERATIONS AND  1 ARE EQUILIBRIUM ITERATIONS.

 TIME INCREMENT COMPLETED  5.767E-02,  FRACTION OF STEP COMPLETED  0.172    
 STEP TIME COMPLETED       0.172    ,  TOTAL TIME COMPLETED        0.172    


  INCREMENT    13 STARTS. ATTEMPT NUMBER  1, TIME INCREMENT  8.650E-02

  NUMBER OF EQUATIONS =       198     NUMBER OF RHS =    1
  NUMBER OF FLOATING PT. OPERATIONS =  1.12E+06

     CHECK POINT   START OF SOLVER    

     CHECK POINT  END OF SOLVER       

       ELAPSED USER TIME (SEC)      =   0.0000    
       ELAPSED SYSTEM TIME (SEC)    =   0.0000    
       ELAPSED TOTAL CPU TIME (SEC) =   0.0000    
       ELAPSED WALLCLOCK TIME (SEC) =          0

               CONVERGENCE CHECKS FOR EQUILIBRIUM ITERATION     1

   MAX. PENETRATION ERROR 3.03407E-18 AT NODE INSTANCE-SOIL.16 OF CONTACT PAIR 
   (ASSEMBLY_INSTANCE-SOIL_SURFACE-SOIL-Z0,ASSEMBLY_INSTANCE-SOLID_SURFACE-SOLID
   -Z1)
   MAX. CONTACT FORCE ERROR -255.764E-18   AT NODE INSTANCE-SOIL.30 OF CONTACT 
   PAIR 
   (ASSEMBLY_INSTANCE-SOIL_SURFACE-SOIL-Z0,ASSEMBLY_INSTANCE-SOLID_SURFACE-SOLID
   -Z1)
          THE CONTACT CONSTRAINTS HAVE CONVERGED.

 AVERAGE FORCE                      1.060E-03   TIME AVG. FORCE       3.084E-04
 LARGEST RESIDUAL FORCE             3.253E-18   AT NODE         38   DOF  3
   INSTANCE: INSTANCE-SOIL                                                                   
 LARGEST INCREMENT OF DISP.         5.892E-14   AT NODE         15   DOF  3
   INSTANCE: INSTANCE-SOIL                                                                   
 LARGEST CORRECTION TO DISP.       -1.796E-17   AT NODE         13   DOF  3
   INSTANCE: INSTANCE-SOIL                                                                   
          THE FORCE     EQUILIBRIUM RESPONSE WAS LINEAR IN THIS INCREMENT

 AVERAGE MOMENT                      0.00       TIME AVG. MOMENT      1.000E-02
 ALL MOMENT    RESIDUALS ARE ZERO
 LARGEST INCREMENT OF ROTATION      1.252E-39   AT NODE        217   DOF  5
   INSTANCE: INSTANCE-SOLID                                                                  
 LARGEST CORRECTION TO ROTATION     2.422E-42   AT NODE        217   DOF  5
   INSTANCE: INSTANCE-SOLID                                                                  
          THERE IS ZERO MOMENT    EVERYWHERE
          TIME INCREMENT MAY NOW INCREASE TO    0.130    

 ITERATION SUMMARY FOR THE INCREMENT:   1 TOTAL ITERATIONS, OF WHICH
   0 ARE SEVERE DISCONTINUITY ITERATIONS AND  1 ARE EQUILIBRIUM ITERATIONS.

 TIME INCREMENT COMPLETED  8.650E-02,  FRACTION OF STEP COMPLETED  0.258    
 STEP TIME COMPLETED       0.258    ,  TOTAL TIME COMPLETED        0.258    


  INCREMENT    14 STARTS. ATTEMPT NUMBER  1, TIME INCREMENT  0.130    

  NUMBER OF EQUATIONS =       198     NUMBER OF RHS =    1
  NUMBER OF FLOATING PT. OPERATIONS =  1.12E+06

     CHECK POINT   START OF SOLVER    

     CHECK POINT  END OF SOLVER       

       ELAPSED USER TIME (SEC)      =   0.0000    
       ELAPSED SYSTEM TIME (SEC)    =   0.0000    
       ELAPSED TOTAL CPU TIME (SEC) =   0.0000    
       ELAPSED WALLCLOCK TIME (SEC) =          0

               CONVERGENCE CHECKS FOR EQUILIBRIUM ITERATION     1

   MAX. PENETRATION ERROR 4.07253E-18 AT NODE INSTANCE-SOIL.64 OF CONTACT PAIR 
   (ASSEMBLY_INSTANCE-SOIL_SURFACE-SOIL-Z0,ASSEMBLY_INSTANCE-SOLID_SURFACE-SOLID
   -Z1)
   MAX. CONTACT FORCE ERROR 320.104E-18   AT NODE INSTANCE-SOIL.31 OF CONTACT 
   PAIR 
   (ASSEMBLY_INSTANCE-SOIL_SURFACE-SOIL-Z0,ASSEMBLY_INSTANCE-SOLID_SURFACE-SOLID
   -Z1)
          THE CONTACT CONSTRAINTS HAVE CONVERGED.

 AVERAGE FORCE                      1.592E-03   TIME AVG. FORCE       4.251E-04
 LARGEST RESIDUAL FORCE            -7.969E-18   AT NODE         31   DOF  3
   INSTANCE: INSTANCE-SOIL                                                                   
 LARGEST INCREMENT OF DISP.         8.838E-14   AT NODE         63   DOF  3
   INSTANCE: INSTANCE-SOIL                                                                   
 LARGEST CORRECTION TO DISP.       -1.548E-17   AT NODE         15   DOF  3
   INSTANCE: INSTANCE-SOIL                                                                   
          THE FORCE     EQUILIBRIUM RESPONSE WAS LINEAR IN THIS INCREMENT

 AVERAGE MOMENT                      0.00       TIME AVG. MOMENT      1.000E-02
 ALL MOMENT    RESIDUALS ARE ZERO
 LARGEST INCREMENT OF ROTATION     -1.881E-39   AT NODE        217   DOF  4
   INSTANCE: INSTANCE-SOLID                                                                  
 LARGEST CORRECTION TO ROTATION    -2.422E-42   AT NODE        217   DOF  4
   INSTANCE: INSTANCE-SOLID                                                                  
          THERE IS ZERO MOMENT    EVERYWHERE
          TIME INCREMENT MAY NOW INCREASE TO    0.195    

 ITERATION SUMMARY FOR THE INCREMENT:   1 TOTAL ITERATIONS, OF WHICH
   0 ARE SEVERE DISCONTINUITY ITERATIONS AND  1 ARE EQUILIBRIUM ITERATIONS.

 TIME INCREMENT COMPLETED  0.130    ,  FRACTION OF STEP COMPLETED  0.388    
 STEP TIME COMPLETED       0.388    ,  TOTAL TIME COMPLETED        0.388    


  INCREMENT    15 STARTS. ATTEMPT NUMBER  1, TIME INCREMENT  0.195    

  NUMBER OF EQUATIONS =       198     NUMBER OF RHS =    1
  NUMBER OF FLOATING PT. OPERATIONS =  1.12E+06

     CHECK POINT   START OF SOLVER    

     CHECK POINT  END OF SOLVER       

       ELAPSED USER TIME (SEC)      =   0.0000    
       ELAPSED SYSTEM TIME (SEC)    =   0.0000    
       ELAPSED TOTAL CPU TIME (SEC) =   0.0000    
       ELAPSED WALLCLOCK TIME (SEC) =          0

               CONVERGENCE CHECKS FOR EQUILIBRIUM ITERATION     1

   MAX. PENETRATION ERROR 3.54060E-18 AT NODE INSTANCE-SOIL.13 OF CONTACT PAIR 
   (ASSEMBLY_INSTANCE-SOIL_SURFACE-SOIL-Z0,ASSEMBLY_INSTANCE-SOLID_SURFACE-SOLID
   -Z1)
   MAX. CONTACT FORCE ERROR 451.523E-18   AT NODE INSTANCE-SOIL.47 OF CONTACT 
   PAIR 
   (ASSEMBLY_INSTANCE-SOIL_SURFACE-SOIL-Z0,ASSEMBLY_INSTANCE-SOLID_SURFACE-SOLID
   -Z1)
          THE CONTACT CONSTRAINTS HAVE CONVERGED.

 AVERAGE FORCE                      2.391E-03   TIME AVG. FORCE       5.889E-04
 LARGEST RESIDUAL FORCE             6.939E-18   AT NODE         22   DOF  1
   INSTANCE: INSTANCE-SOIL                                                                   
 LARGEST INCREMENT OF DISP.         1.326E-13   AT NODE         15   DOF  3
   INSTANCE: INSTANCE-SOIL                                                                   
 LARGEST CORRECTION TO DISP.        1.773E-17   AT NODE         15   DOF  3
   INSTANCE: INSTANCE-SOIL                                                                   
          THE FORCE     EQUILIBRIUM RESPONSE WAS LINEAR IN THIS INCREMENT

 AVERAGE MOMENT                      0.00       TIME AVG. MOMENT      1.000E-02
 ALL MOMENT    RESIDUALS ARE ZERO
 LARGEST INCREMENT OF ROTATION     -2.823E-39   AT NODE        217   DOF  4
   INSTANCE: INSTANCE-SOLID                                                                  
 LARGEST CORRECTION TO ROTATION     2.422E-42   AT NODE        217   DOF  5
   INSTANCE: INSTANCE-SOLID                                                                  
          THERE IS ZERO MOMENT    EVERYWHERE
          TIME INCREMENT MAY NOW INCREASE TO    0.292    

 ITERATION SUMMARY FOR THE INCREMENT:   1 TOTAL ITERATIONS, OF WHICH
   0 ARE SEVERE DISCONTINUITY ITERATIONS AND  1 ARE EQUILIBRIUM ITERATIONS.

 TIME INCREMENT COMPLETED  0.195    ,  FRACTION OF STEP COMPLETED  0.583    
 STEP TIME COMPLETED       0.583    ,  TOTAL TIME COMPLETED        0.583    


  INCREMENT    16 STARTS. ATTEMPT NUMBER  1, TIME INCREMENT  0.292    

  NUMBER OF EQUATIONS =       198     NUMBER OF RHS =    1
  NUMBER OF FLOATING PT. OPERATIONS =  1.12E+06

     CHECK POINT   START OF SOLVER    

     CHECK POINT  END OF SOLVER       

       ELAPSED USER TIME (SEC)      =   0.0000    
       ELAPSED SYSTEM TIME (SEC)    =   0.0000    
       ELAPSED TOTAL CPU TIME (SEC) =   0.0000    
       ELAPSED WALLCLOCK TIME (SEC) =          0

               CONVERGENCE CHECKS FOR EQUILIBRIUM ITERATION     1

   MAX. PENETRATION ERROR -5.07712E-18 AT NODE INSTANCE-SOIL.64 OF CONTACT PAIR 
   (ASSEMBLY_INSTANCE-SOIL_SURFACE-SOIL-Z0,ASSEMBLY_INSTANCE-SOLID_SURFACE-SOLID
   -Z1)
   MAX. CONTACT FORCE ERROR 587.504E-18   AT NODE INSTANCE-SOIL.31 OF CONTACT 
   PAIR 
   (ASSEMBLY_INSTANCE-SOIL_SURFACE-SOIL-Z0,ASSEMBLY_INSTANCE-SOLID_SURFACE-SOLID
   -Z1)
          THE CONTACT CONSTRAINTS HAVE CONVERGED.

 AVERAGE FORCE                      3.588E-03   TIME AVG. FORCE       8.196E-04
 LARGEST RESIDUAL FORCE             9.573E-18   AT NODE         47   DOF  1
   INSTANCE: INSTANCE-SOIL                                                                   
 LARGEST INCREMENT OF DISP.         1.989E-13   AT NODE         64   DOF  3
   INSTANCE: INSTANCE-SOIL                                                                   
 LARGEST CORRECTION TO DISP.       -1.220E-17   AT NODE         16   DOF  3
   INSTANCE: INSTANCE-SOIL                                                                   
          THE FORCE     EQUILIBRIUM RESPONSE WAS LINEAR IN THIS INCREMENT

 AVERAGE MOMENT                      0.00       TIME AVG. MOMENT      1.000E-02
 ALL MOMENT    RESIDUALS ARE ZERO
 LARGEST INCREMENT OF ROTATION     -4.237E-39   AT NODE        217   DOF  4
   INSTANCE: INSTANCE-SOLID                                                                  
 LARGEST CORRECTION TO ROTATION     2.422E-42   AT NODE        217   DOF  5
   INSTANCE: INSTANCE-SOLID                                                                  
          THERE IS ZERO MOMENT    EVERYWHERE

 ITERATION SUMMARY FOR THE INCREMENT:   1 TOTAL ITERATIONS, OF WHICH
   0 ARE SEVERE DISCONTINUITY ITERATIONS AND  1 ARE EQUILIBRIUM ITERATIONS.

 TIME INCREMENT COMPLETED  0.292    ,  FRACTION OF STEP COMPLETED  0.875    
 STEP TIME COMPLETED       0.875    ,  TOTAL TIME COMPLETED        0.875    


  INCREMENT    17 STARTS. ATTEMPT NUMBER  1, TIME INCREMENT  0.125    

  NUMBER OF EQUATIONS =       198     NUMBER OF RHS =    1
  NUMBER OF FLOATING PT. OPERATIONS =  1.12E+06

     CHECK POINT   START OF SOLVER    

     CHECK POINT  END OF SOLVER       

       ELAPSED USER TIME (SEC)      =   0.0000    
       ELAPSED SYSTEM TIME (SEC)    =   0.0000    
       ELAPSED TOTAL CPU TIME (SEC) =   0.0000    
       ELAPSED WALLCLOCK TIME (SEC) =          0

               CONVERGENCE CHECKS FOR EQUILIBRIUM ITERATION     1

   MAX. PENETRATION ERROR 762.952E-21   AT NODE INSTANCE-SOIL.47 OF CONTACT 
   PAIR 
   (ASSEMBLY_INSTANCE-SOIL_SURFACE-SOIL-Z0,ASSEMBLY_INSTANCE-SOLID_SURFACE-SOLID
   -Z1)
   MAX. CONTACT FORCE ERROR 139.860E-18   AT NODE INSTANCE-SOIL.47 OF CONTACT 
   PAIR 
   (ASSEMBLY_INSTANCE-SOIL_SURFACE-SOIL-Z0,ASSEMBLY_INSTANCE-SOLID_SURFACE-SOLID
   -Z1)
          THE CONTACT CONSTRAINTS HAVE CONVERGED.

 AVERAGE FORCE                      4.102E-03   TIME AVG. FORCE       1.054E-03
 LARGEST RESIDUAL FORCE            -8.674E-18   AT NODE         38   DOF  1
   INSTANCE: INSTANCE-SOIL                                                                   
 LARGEST INCREMENT OF DISP.         8.529E-14   AT NODE         31   DOF  3
   INSTANCE: INSTANCE-SOIL                                                                   
 LARGEST CORRECTION TO DISP.        6.772E-18   AT NODE         31   DOF  3
   INSTANCE: INSTANCE-SOIL                                                                   
          THE FORCE     EQUILIBRIUM RESPONSE WAS LINEAR IN THIS INCREMENT

 AVERAGE MOMENT                      0.00       TIME AVG. MOMENT      1.000E-02
 ALL MOMENT    RESIDUALS ARE ZERO
 LARGEST INCREMENT OF ROTATION      4.844E-39   AT NODE        217   DOF  5
   INSTANCE: INSTANCE-SOLID                                                                  
 LARGEST CORRECTION TO ROTATION     3.026E-39   AT NODE        217   DOF  5
   INSTANCE: INSTANCE-SOLID                                                                  
          THERE IS ZERO MOMENT    EVERYWHERE

 ITERATION SUMMARY FOR THE INCREMENT:   1 TOTAL ITERATIONS, OF WHICH
   0 ARE SEVERE DISCONTINUITY ITERATIONS AND  1 ARE EQUILIBRIUM ITERATIONS.

 TIME INCREMENT COMPLETED  0.125    ,  FRACTION OF STEP COMPLETED   1.00    
 STEP TIME COMPLETED        1.00    ,  TOTAL TIME COMPLETED         1.00    
1

   Abaqus 2021                                  Date 29-Dec-2021   Time 13:49:53
   For use by Supplied by Team-SolidSQUAD under license from Dassault Systemes or its subsidiary.

                                                                                 
                                                                                 
 STEP    2     INCREMENT     1     STEP TIME    0.00    


                        S T E P       2     S T A T I C   A N A L Y S I S


                                                                                          

     AUTOMATIC TIME CONTROL WITH -
          A SUGGESTED INITIAL TIME INCREMENT OF                1.000E-03
          AND A TOTAL TIME PERIOD OF                            1.00    
          THE MINIMUM TIME INCREMENT ALLOWED IS                1.000E-05
          THE MAXIMUM TIME INCREMENT ALLOWED IS                 1.00    

     LINEAR EQUATION SOLVER TYPE         DIRECT SPARSE

 CONVERGENCE TOLERANCE PARAMETERS FOR FORCE    
     CRITERION FOR RESIDUAL FORCE     FOR A NONLINEAR PROBLEM          5.000E-03
     CRITERION FOR DISP.    CORRECTION IN A NONLINEAR PROBLEM          1.000E-02
     INIT. VALUE OF TIME AVG. FORCE     IS TIME AVG. FORCE     IN PREVIOUS STEP
     AVERAGE FORCE     IS TIME AVERAGE FORCE    
     ALTERNATE CRIT. FOR RESIDUAL FORCE     FOR A NONLINEAR PROBLEM    2.000E-02
     CRITERION FOR ZERO FORCE     RELATIVE TO TIME AVRG. FORCE         1.000E-05
     CRITERION FOR RESIDUAL FORCE     WHEN THERE IS ZERO FLUX          1.000E-05
     CRITERION FOR DISP.    CORRECTION WHEN THERE IS ZERO FLUX         1.000E-03
     CRITERION FOR RESIDUAL FORCE     FOR A LINEAR INCREMENT           1.000E-08
     FIELD CONVERSION RATIO                                             1.00    
     CRITERION FOR ZERO FORCE     REL. TO TIME AVRG. MAX. FORCE        1.000E-05
     CRITERION FOR ZERO DISP.    RELATIVE TO CHARACTERISTIC LENGTH     1.000E-08

 CONVERGENCE TOLERANCE PARAMETERS FOR MOMENT   
     CRITERION FOR RESIDUAL MOMENT    FOR A NONLINEAR PROBLEM          5.000E-03
     CRITERION FOR ROTATION CORRECTION IN A NONLINEAR PROBLEM          1.000E-02
     INIT. VALUE OF TIME AVG. MOMENT    IS TIME AVG. MOMENT    IN PREVIOUS STEP
     AVERAGE MOMENT    IS TIME AVERAGE MOMENT   
     ALTERNATE CRIT. FOR RESIDUAL MOMENT    FOR A NONLINEAR PROBLEM    2.000E-02
     CRITERION FOR ZERO MOMENT    RELATIVE TO TIME AVRG. MOMENT        1.000E-05
     CRITERION FOR RESIDUAL MOMENT    WHEN THERE IS ZERO FLUX          1.000E-05
     CRITERION FOR ROTATION CORRECTION WHEN THERE IS ZERO FLUX         1.000E-03
     CRITERION FOR RESIDUAL MOMENT    FOR A LINEAR INCREMENT           1.000E-08
     FIELD CONVERSION RATIO                                             1.00    
     CRITERION FOR ZERO MOMENT    REL. TO TIME AVRG. MAX. MOMENT       1.000E-05

     VOLUMETRIC STRAIN COMPATIBILITY TOLERANCE FOR HYBRID SOLIDS       1.000E-05
     AXIAL STRAIN COMPATIBILITY TOLERANCE FOR HYBRID BEAMS             1.000E-05
     TRANS. SHEAR STRAIN COMPATIBILITY TOLERANCE FOR HYBRID BEAMS      1.000E-05
     SOFT CONTACT CONSTRAINT COMPATIBILITY TOLERANCE FOR P>P0          5.000E-03
     SOFT CONTACT CONSTRAINT COMPATIBILITY TOLERANCE FOR P=0.0         0.100    
     CONTACT FORCE ERROR TOLERANCE FOR CONVERT SDI=YES                 1.00    
     DISPLACEMENT COMPATIBILITY TOLERANCE FOR DCOUP ELEMENTS           1.000E-05
     ROTATION COMPATIBILITY TOLERANCE FOR DCOUP ELEMENTS               1.000E-05

 EQUILIBRIUM WILL BE CHECKED FOR SEVERE DISCONTINUITY ITERATIONS

 TIME INCREMENTATION CONTROL PARAMETERS:
     FIRST EQUILIBRIUM ITERATION FOR CONSECUTIVE DIVERGENCE CHECK              4
     EQUILIBRIUM ITERATION AT WHICH LOG. CONVERGENCE RATE CHECK BEGINS         8
     EQUILIBRIUM ITERATION AFTER WHICH ALTERNATE RESIDUAL IS USED              9
     MAXIMUM EQUILIBRIUM ITERATIONS ALLOWED                                   16
     EQUILIBRIUM ITERATION COUNT FOR CUT-BACK IN NEXT INCREMENT               10
     MAXIMUM EQUILIB. ITERS IN TWO INCREMENTS FOR TIME INCREMENT INCREASE      4
     MAXIMUM ITERATIONS FOR SEVERE DISCONTINUITIES                            50
     MAXIMUM ATTEMPTS ALLOWED IN AN INCREMENT                                  5
     MAXIMUM DISCON. ITERS IN TWO INCREMENTS FOR TIME INCREMENT INCREASE      50
     MAXIMUM CONTACT AUGMENTATIONS FOR *SURFACE BEHAVIOR,AUGMENTED LAGRANGE   50
     CUT-BACK FACTOR AFTER DIVERGENCE                                 0.2500    
     CUT-BACK FACTOR FOR TOO SLOW CONVERGENCE                         0.5000    
     CUT-BACK FACTOR AFTER TOO MANY EQUILIBRIUM ITERATIONS            0.7500    
     CUT-BACK FACTOR AFTER TOO MANY SEVERE DISCONTINUITY ITERATIONS   0.2500    
     CUT-BACK FACTOR AFTER PROBLEMS IN ELEMENT ASSEMBLY               0.2500    
     INCREASE FACTOR AFTER TWO INCREMENTS THAT CONVERGE QUICKLY        1.500    
     MAX. TIME INCREMENT INCREASE FACTOR ALLOWED                       1.500    
     MAX. TIME INCREMENT INCREASE FACTOR ALLOWED (DYNAMICS)            1.250    
     MAX. TIME INCREMENT INCREASE FACTOR ALLOWED (DIFFUSION)           2.000    
     MINIMUM TIME INCREMENT RATIO FOR EXTRAPOLATION TO OCCUR          0.1000    
     MAX. RATIO OF TIME INCREMENT TO STABILITY LIMIT                   1.000    
     FRACTION OF STABILITY LIMIT FOR NEW TIME INCREMENT               0.9500    
     TIME INCREMENT INCREASE FACTOR BEFORE A TIME POINT                1.000    

 CONTACT CONTROLS APPLIED TO ALL CONTACT PAIRS:
     GLOBAL STABILIZATION CONTROL IS NOT USED
     RELATIVE PENETRATION TOLERANCE FOR AUGMENTED LAGRANGE CONTACT:
          FINITE-SLIDING SURFACE-TO-SURFACE                            5.000E-02
          OTHERWISE                                                    1.000E-03

          PRINT OF INCREMENT NUMBER, TIME, ETC., EVERY    1  INCREMENTS

     THE MAXIMUM NUMBER OF INCREMENTS IN THIS STEP IS                     100

          UNSYMMETRIC MATRIX STORAGE AND SOLUTION WILL BE USED

     LINEAR EXTRAPOLATION WILL BE USED

     CHARACTERISTIC ELEMENT LENGTH     9.441E-03

     DETAILS REGARDING ACTUAL SOLUTION WAVEFRONT REQUESTED

     DETAILED OUTPUT OF DIAGNOSTICS TO DATABASE REQUESTED

     PRINT OF INCREMENT NUMBER, TIME, ETC., TO THE MESSAGE FILE EVERY     1  INCREMENTS

     COLLECTING STEP CONSTRAINT INFORMATION FOR OVERCONSTRAINT CHECKS


  INCREMENT     1 STARTS. ATTEMPT NUMBER  1, TIME INCREMENT  1.000E-03

  NUMBER OF EQUATIONS =       198     NUMBER OF RHS =    1
  NUMBER OF FLOATING PT. OPERATIONS =  1.12E+06

     CHECK POINT   START OF SOLVER    

     CHECK POINT  END OF SOLVER       

       ELAPSED USER TIME (SEC)      =   0.0000    
       ELAPSED SYSTEM TIME (SEC)    =   0.0000    
       ELAPSED TOTAL CPU TIME (SEC) =   0.0000    
       ELAPSED WALLCLOCK TIME (SEC) =          0

               CONVERGENCE CHECKS FOR EQUILIBRIUM ITERATION     1

   MAX. PENETRATION ERROR 3.83367E-18 AT NODE INSTANCE-SOIL.61 OF CONTACT PAIR 
   (ASSEMBLY_INSTANCE-SOIL_SURFACE-SOIL-Z0,ASSEMBLY_INSTANCE-SOLID_SURFACE-SOLID
   -Z1)
   MAX. CONTACT FORCE ERROR 253.368E-18   AT NODE INSTANCE-SOIL.32 OF CONTACT 
   PAIR 
   (ASSEMBLY_INSTANCE-SOIL_SURFACE-SOIL-Z0,ASSEMBLY_INSTANCE-SOLID_SURFACE-SOLID
   -Z1)
          THE CONTACT CONSTRAINTS HAVE CONVERGED.

 AVERAGE FORCE                      4.102E-03   TIME AVG. FORCE       4.102E-03
 LARGEST RESIDUAL FORCE             9.270E-18   AT NODE         47   DOF  3
   INSTANCE: INSTANCE-SOIL                                                                   
 LARGEST INCREMENT OF DISP.         6.000E-06   AT NODE          1   DOF  1
   INSTANCE: INSTANCE-SOLID                                                                  
 LARGEST CORRECTION TO DISP.        6.000E-06   AT NODE          1   DOF  1
   INSTANCE: INSTANCE-SOLID                                                                  
          THE FORCE     EQUILIBRIUM RESPONSE WAS LINEAR IN THIS INCREMENT

 AVERAGE MOMENT                      0.00       TIME AVG. MOMENT      1.000E-02
 ALL MOMENT    RESIDUALS ARE ZERO
 LARGEST INCREMENT OF ROTATION     -4.844E-39   AT NODE        217   DOF  4
   INSTANCE: INSTANCE-SOLID                                                                  
 LARGEST CORRECTION TO ROTATION    -4.844E-39   AT NODE        217   DOF  4
   INSTANCE: INSTANCE-SOLID                                                                  
          THERE IS ZERO MOMENT    EVERYWHERE

 ITERATION SUMMARY FOR THE INCREMENT:   1 TOTAL ITERATIONS, OF WHICH
   0 ARE SEVERE DISCONTINUITY ITERATIONS AND  1 ARE EQUILIBRIUM ITERATIONS.

 TIME INCREMENT COMPLETED  1.000E-03,  FRACTION OF STEP COMPLETED  1.000E-03
 STEP TIME COMPLETED       1.000E-03,  TOTAL TIME COMPLETED         1.00    


  INCREMENT     2 STARTS. ATTEMPT NUMBER  1, TIME INCREMENT  1.000E-03

  NUMBER OF EQUATIONS =       198     NUMBER OF RHS =    1
  NUMBER OF FLOATING PT. OPERATIONS =  1.12E+06

     CHECK POINT   START OF SOLVER    

     CHECK POINT  END OF SOLVER       

       ELAPSED USER TIME (SEC)      =   0.0000    
       ELAPSED SYSTEM TIME (SEC)    =   0.0000    
       ELAPSED TOTAL CPU TIME (SEC) =   0.0000    
       ELAPSED WALLCLOCK TIME (SEC) =          0

               CONVERGENCE CHECKS FOR EQUILIBRIUM ITERATION     1

   MAX. PENETRATION ERROR 1.93559E-18 AT NODE INSTANCE-SOIL.32 OF CONTACT PAIR 
   (ASSEMBLY_INSTANCE-SOIL_SURFACE-SOIL-Z0,ASSEMBLY_INSTANCE-SOLID_SURFACE-SOLID
   -Z1)
   MAX. CONTACT FORCE ERROR 235.458E-18   AT NODE INSTANCE-SOIL.47 OF CONTACT 
   PAIR 
   (ASSEMBLY_INSTANCE-SOIL_SURFACE-SOIL-Z0,ASSEMBLY_INSTANCE-SOLID_SURFACE-SOLID
   -Z1)
          THE CONTACT CONSTRAINTS HAVE CONVERGED.

 AVERAGE FORCE                      4.102E-03   TIME AVG. FORCE       4.102E-03
 LARGEST RESIDUAL FORCE             1.128E-17   AT NODE         22   DOF  1
   INSTANCE: INSTANCE-SOIL                                                                   
 LARGEST INCREMENT OF DISP.         6.000E-06   AT NODE          1   DOF  1
   INSTANCE: INSTANCE-SOLID                                                                  
 LARGEST CORRECTION TO DISP.        6.318E-18   AT NODE         64   DOF  3
   INSTANCE: INSTANCE-SOIL                                                                   
          THE FORCE     EQUILIBRIUM RESPONSE WAS LINEAR IN THIS INCREMENT

 AVERAGE MOMENT                      0.00       TIME AVG. MOMENT      1.000E-02
 ALL MOMENT    RESIDUALS ARE ZERO
 LARGEST INCREMENT OF ROTATION     -4.844E-39   AT NODE        217   DOF  4
   INSTANCE: INSTANCE-SOLID                                                                  
 LARGEST CORRECTION TO ROTATION    -1.163E-42   AT NODE        217   DOF  5
   INSTANCE: INSTANCE-SOLID                                                                  
          THERE IS ZERO MOMENT    EVERYWHERE
          TIME INCREMENT MAY NOW INCREASE TO    1.500E-03

 ITERATION SUMMARY FOR THE INCREMENT:   1 TOTAL ITERATIONS, OF WHICH
   0 ARE SEVERE DISCONTINUITY ITERATIONS AND  1 ARE EQUILIBRIUM ITERATIONS.

 TIME INCREMENT COMPLETED  1.000E-03,  FRACTION OF STEP COMPLETED  2.000E-03
 STEP TIME COMPLETED       2.000E-03,  TOTAL TIME COMPLETED         1.00    


  INCREMENT     3 STARTS. ATTEMPT NUMBER  1, TIME INCREMENT  1.500E-03

  NUMBER OF EQUATIONS =       198     NUMBER OF RHS =    1
  NUMBER OF FLOATING PT. OPERATIONS =  1.12E+06

     CHECK POINT   START OF SOLVER    

     CHECK POINT  END OF SOLVER       

       ELAPSED USER TIME (SEC)      =   0.0000    
       ELAPSED SYSTEM TIME (SEC)    =   0.0000    
       ELAPSED TOTAL CPU TIME (SEC) =   0.0000    
       ELAPSED WALLCLOCK TIME (SEC) =          0

               CONVERGENCE CHECKS FOR EQUILIBRIUM ITERATION     1

   MAX. PENETRATION ERROR -3.09845E-18 AT NODE INSTANCE-SOIL.13 OF CONTACT PAIR 
   (ASSEMBLY_INSTANCE-SOIL_SURFACE-SOIL-Z0,ASSEMBLY_INSTANCE-SOLID_SURFACE-SOLID
   -Z1)
   MAX. CONTACT FORCE ERROR -470.688E-18   AT NODE INSTANCE-SOIL.47 OF CONTACT 
   PAIR 
   (ASSEMBLY_INSTANCE-SOIL_SURFACE-SOIL-Z0,ASSEMBLY_INSTANCE-SOLID_SURFACE-SOLID
   -Z1)
          THE CONTACT CONSTRAINTS HAVE CONVERGED.

 AVERAGE FORCE                      4.102E-03   TIME AVG. FORCE       4.102E-03
 LARGEST RESIDUAL FORCE             9.649E-18   AT NODE         30   DOF  3
   INSTANCE: INSTANCE-SOIL                                                                   
 LARGEST INCREMENT OF DISP.         9.000E-06   AT NODE          1   DOF  1
   INSTANCE: INSTANCE-SOLID                                                                  
 LARGEST CORRECTION TO DISP.        1.733E-17   AT NODE         13   DOF  3
   INSTANCE: INSTANCE-SOIL                                                                   
          THE FORCE     EQUILIBRIUM RESPONSE WAS LINEAR IN THIS INCREMENT

 AVERAGE MOMENT                      0.00       TIME AVG. MOMENT      1.000E-02
 ALL MOMENT    RESIDUALS ARE ZERO
 LARGEST INCREMENT OF ROTATION     -4.844E-39   AT NODE        217   DOF  4
   INSTANCE: INSTANCE-SOLID                                                                  
 LARGEST CORRECTION TO ROTATION    -2.422E-39   AT NODE        217   DOF  5
   INSTANCE: INSTANCE-SOLID                                                                  
          THERE IS ZERO MOMENT    EVERYWHERE
          TIME INCREMENT MAY NOW INCREASE TO    2.250E-03

 ITERATION SUMMARY FOR THE INCREMENT:   1 TOTAL ITERATIONS, OF WHICH
   0 ARE SEVERE DISCONTINUITY ITERATIONS AND  1 ARE EQUILIBRIUM ITERATIONS.

 TIME INCREMENT COMPLETED  1.500E-03,  FRACTION OF STEP COMPLETED  3.500E-03
 STEP TIME COMPLETED       3.500E-03,  TOTAL TIME COMPLETED         1.00    


  INCREMENT     4 STARTS. ATTEMPT NUMBER  1, TIME INCREMENT  2.250E-03

  NUMBER OF EQUATIONS =       198     NUMBER OF RHS =    1
  NUMBER OF FLOATING PT. OPERATIONS =  1.12E+06

     CHECK POINT   START OF SOLVER    

     CHECK POINT  END OF SOLVER       

       ELAPSED USER TIME (SEC)      =   0.0000    
       ELAPSED SYSTEM TIME (SEC)    =   0.0000    
       ELAPSED TOTAL CPU TIME (SEC) =   0.0000    
       ELAPSED WALLCLOCK TIME (SEC) =          0

               CONVERGENCE CHECKS FOR EQUILIBRIUM ITERATION     1

   MAX. PENETRATION ERROR -2.38863E-18 AT NODE INSTANCE-SOIL.13 OF CONTACT PAIR 
   (ASSEMBLY_INSTANCE-SOIL_SURFACE-SOIL-Z0,ASSEMBLY_INSTANCE-SOLID_SURFACE-SOLID
   -Z1)
   MAX. CONTACT FORCE ERROR 153.664E-18   AT NODE INSTANCE-SOIL.32 OF CONTACT 
   PAIR 
   (ASSEMBLY_INSTANCE-SOIL_SURFACE-SOIL-Z0,ASSEMBLY_INSTANCE-SOLID_SURFACE-SOLID
   -Z1)
          THE CONTACT CONSTRAINTS HAVE CONVERGED.

 AVERAGE FORCE                      4.102E-03   TIME AVG. FORCE       4.102E-03
 LARGEST RESIDUAL FORCE             1.128E-17   AT NODE         22   DOF  1
   INSTANCE: INSTANCE-SOIL                                                                   
 LARGEST INCREMENT OF DISP.         1.350E-05   AT NODE          1   DOF  1
   INSTANCE: INSTANCE-SOLID                                                                  
 LARGEST CORRECTION TO DISP.       -1.871E-17   AT NODE         13   DOF  3
   INSTANCE: INSTANCE-SOIL                                                                   
          THE FORCE     EQUILIBRIUM RESPONSE WAS LINEAR IN THIS INCREMENT

 AVERAGE MOMENT                      0.00       TIME AVG. MOMENT      1.000E-02
 ALL MOMENT    RESIDUALS ARE ZERO
 LARGEST INCREMENT OF ROTATION     -4.844E-39   AT NODE        217   DOF  4
   INSTANCE: INSTANCE-SOLID                                                                  
 LARGEST CORRECTION TO ROTATION    -2.422E-39   AT NODE        217   DOF  5
   INSTANCE: INSTANCE-SOLID                                                                  
          THERE IS ZERO MOMENT    EVERYWHERE
          TIME INCREMENT MAY NOW INCREASE TO    3.375E-03

 ITERATION SUMMARY FOR THE INCREMENT:   1 TOTAL ITERATIONS, OF WHICH
   0 ARE SEVERE DISCONTINUITY ITERATIONS AND  1 ARE EQUILIBRIUM ITERATIONS.

 TIME INCREMENT COMPLETED  2.250E-03,  FRACTION OF STEP COMPLETED  5.750E-03
 STEP TIME COMPLETED       5.750E-03,  TOTAL TIME COMPLETED         1.01    


  INCREMENT     5 STARTS. ATTEMPT NUMBER  1, TIME INCREMENT  3.375E-03

  NUMBER OF EQUATIONS =       198     NUMBER OF RHS =    1
  NUMBER OF FLOATING PT. OPERATIONS =  1.12E+06

     CHECK POINT   START OF SOLVER    

     CHECK POINT  END OF SOLVER       

       ELAPSED USER TIME (SEC)      =   0.0000    
       ELAPSED SYSTEM TIME (SEC)    =   0.0000    
       ELAPSED TOTAL CPU TIME (SEC) =   0.0000    
       ELAPSED WALLCLOCK TIME (SEC) =          0

               CONVERGENCE CHECKS FOR EQUILIBRIUM ITERATION     1

   MAX. PENETRATION ERROR 3.12918E-18 AT NODE INSTANCE-SOIL.15 OF CONTACT PAIR 
   (ASSEMBLY_INSTANCE-SOIL_SURFACE-SOIL-Z0,ASSEMBLY_INSTANCE-SOLID_SURFACE-SOLID
   -Z1)
   MAX. CONTACT FORCE ERROR -325.808E-18   AT NODE INSTANCE-SOIL.47 OF CONTACT 
   PAIR 
   (ASSEMBLY_INSTANCE-SOIL_SURFACE-SOIL-Z0,ASSEMBLY_INSTANCE-SOLID_SURFACE-SOLID
   -Z1)
          THE CONTACT CONSTRAINTS HAVE CONVERGED.

 AVERAGE FORCE                      4.102E-03   TIME AVG. FORCE       4.102E-03
 LARGEST RESIDUAL FORCE             9.135E-18   AT NODE         31   DOF  1
   INSTANCE: INSTANCE-SOIL                                                                   
 LARGEST INCREMENT OF DISP.         2.025E-05   AT NODE          1   DOF  1
   INSTANCE: INSTANCE-SOLID                                                                  
 LARGEST CORRECTION TO DISP.       -1.893E-17   AT NODE         48   DOF  3
   INSTANCE: INSTANCE-SOIL                                                                   
          THE FORCE     EQUILIBRIUM RESPONSE WAS LINEAR IN THIS INCREMENT

 AVERAGE MOMENT                      0.00       TIME AVG. MOMENT      1.000E-02
 ALL MOMENT    RESIDUALS ARE ZERO
 LARGEST INCREMENT OF ROTATION     -4.844E-39   AT NODE        217   DOF  4
   INSTANCE: INSTANCE-SOLID                                                                  
 LARGEST CORRECTION TO ROTATION    -2.422E-39   AT NODE        217   DOF  5
   INSTANCE: INSTANCE-SOLID                                                                  
          THERE IS ZERO MOMENT    EVERYWHERE
          TIME INCREMENT MAY NOW INCREASE TO    5.063E-03

 ITERATION SUMMARY FOR THE INCREMENT:   1 TOTAL ITERATIONS, OF WHICH
   0 ARE SEVERE DISCONTINUITY ITERATIONS AND  1 ARE EQUILIBRIUM ITERATIONS.

 TIME INCREMENT COMPLETED  3.375E-03,  FRACTION OF STEP COMPLETED  9.125E-03
 STEP TIME COMPLETED       9.125E-03,  TOTAL TIME COMPLETED         1.01    


  INCREMENT     6 STARTS. ATTEMPT NUMBER  1, TIME INCREMENT  5.063E-03

  NUMBER OF EQUATIONS =       198     NUMBER OF RHS =    1
  NUMBER OF FLOATING PT. OPERATIONS =  1.12E+06

     CHECK POINT   START OF SOLVER    

     CHECK POINT  END OF SOLVER       

       ELAPSED USER TIME (SEC)      =   0.0000    
       ELAPSED SYSTEM TIME (SEC)    =   0.0000    
       ELAPSED TOTAL CPU TIME (SEC) =   0.0000    
       ELAPSED WALLCLOCK TIME (SEC) =          0

               CONVERGENCE CHECKS FOR EQUILIBRIUM ITERATION     1

   MAX. PENETRATION ERROR -3.49486E-18 AT NODE INSTANCE-SOIL.61 OF CONTACT PAIR 
   (ASSEMBLY_INSTANCE-SOIL_SURFACE-SOIL-Z0,ASSEMBLY_INSTANCE-SOLID_SURFACE-SOLID
   -Z1)
   MAX. CONTACT FORCE ERROR -212.414E-18   AT NODE INSTANCE-SOIL.31 OF CONTACT 
   PAIR 
   (ASSEMBLY_INSTANCE-SOIL_SURFACE-SOIL-Z0,ASSEMBLY_INSTANCE-SOLID_SURFACE-SOLID
   -Z1)
          THE CONTACT CONSTRAINTS HAVE CONVERGED.

 AVERAGE FORCE                      4.102E-03   TIME AVG. FORCE       4.102E-03
 LARGEST RESIDUAL FORCE             1.041E-17   AT NODE         42   DOF  1
   INSTANCE: INSTANCE-SOIL                                                                   
 LARGEST INCREMENT OF DISP.         3.038E-05   AT NODE          1   DOF  1
   INSTANCE: INSTANCE-SOLID                                                                  
 LARGEST CORRECTION TO DISP.        1.531E-17   AT NODE         16   DOF  3
   INSTANCE: INSTANCE-SOIL                                                                   
          THE FORCE     EQUILIBRIUM RESPONSE WAS LINEAR IN THIS INCREMENT

 AVERAGE MOMENT                      0.00       TIME AVG. MOMENT      1.000E-02
 ALL MOMENT    RESIDUALS ARE ZERO
 LARGEST INCREMENT OF ROTATION     -4.844E-39   AT NODE        217   DOF  4
   INSTANCE: INSTANCE-SOLID                                                                  
 LARGEST CORRECTION TO ROTATION    -2.422E-39   AT NODE        217   DOF  5
   INSTANCE: INSTANCE-SOLID                                                                  
          THERE IS ZERO MOMENT    EVERYWHERE
          TIME INCREMENT MAY NOW INCREASE TO    7.594E-03

 ITERATION SUMMARY FOR THE INCREMENT:   1 TOTAL ITERATIONS, OF WHICH
   0 ARE SEVERE DISCONTINUITY ITERATIONS AND  1 ARE EQUILIBRIUM ITERATIONS.

 TIME INCREMENT COMPLETED  5.063E-03,  FRACTION OF STEP COMPLETED  1.419E-02
 STEP TIME COMPLETED       1.419E-02,  TOTAL TIME COMPLETED         1.01    


  INCREMENT     7 STARTS. ATTEMPT NUMBER  1, TIME INCREMENT  7.594E-03

  NUMBER OF EQUATIONS =       198     NUMBER OF RHS =    1
  NUMBER OF FLOATING PT. OPERATIONS =  1.12E+06

     CHECK POINT   START OF SOLVER    

     CHECK POINT  END OF SOLVER       

       ELAPSED USER TIME (SEC)      =   0.0000    
       ELAPSED SYSTEM TIME (SEC)    =   0.0000    
       ELAPSED TOTAL CPU TIME (SEC) =   0.0000    
       ELAPSED WALLCLOCK TIME (SEC) =          0

               CONVERGENCE CHECKS FOR EQUILIBRIUM ITERATION     1

   MAX. PENETRATION ERROR 2.00965E-18 AT NODE INSTANCE-SOIL.45 OF CONTACT PAIR 
   (ASSEMBLY_INSTANCE-SOIL_SURFACE-SOIL-Z0,ASSEMBLY_INSTANCE-SOLID_SURFACE-SOLID
   -Z1)
   MAX. CONTACT FORCE ERROR -215.608E-18   AT NODE INSTANCE-SOIL.31 OF CONTACT 
   PAIR 
   (ASSEMBLY_INSTANCE-SOIL_SURFACE-SOIL-Z0,ASSEMBLY_INSTANCE-SOLID_SURFACE-SOLID
   -Z1)
          THE CONTACT CONSTRAINTS HAVE CONVERGED.

 AVERAGE FORCE                      4.102E-03   TIME AVG. FORCE       4.102E-03
 LARGEST RESIDUAL FORCE            -9.053E-18   AT NODE         30   DOF  3
   INSTANCE: INSTANCE-SOIL                                                                   
 LARGEST INCREMENT OF DISP.         4.556E-05   AT NODE          1   DOF  1
   INSTANCE: INSTANCE-SOLID                                                                  
 LARGEST CORRECTION TO DISP.        1.466E-17   AT NODE         64   DOF  3
   INSTANCE: INSTANCE-SOIL                                                                   
          THE FORCE     EQUILIBRIUM RESPONSE WAS LINEAR IN THIS INCREMENT

 AVERAGE MOMENT                      0.00       TIME AVG. MOMENT      1.000E-02
 ALL MOMENT    RESIDUALS ARE ZERO
 LARGEST INCREMENT OF ROTATION     -4.844E-39   AT NODE        217   DOF  4
   INSTANCE: INSTANCE-SOLID                                                                  
 LARGEST CORRECTION TO ROTATION    -2.422E-39   AT NODE        217   DOF  5
   INSTANCE: INSTANCE-SOLID                                                                  
          THERE IS ZERO MOMENT    EVERYWHERE
          TIME INCREMENT MAY NOW INCREASE TO    1.139E-02

 ITERATION SUMMARY FOR THE INCREMENT:   1 TOTAL ITERATIONS, OF WHICH
   0 ARE SEVERE DISCONTINUITY ITERATIONS AND  1 ARE EQUILIBRIUM ITERATIONS.

 TIME INCREMENT COMPLETED  7.594E-03,  FRACTION OF STEP COMPLETED  2.178E-02
 STEP TIME COMPLETED       2.178E-02,  TOTAL TIME COMPLETED         1.02    


  INCREMENT     8 STARTS. ATTEMPT NUMBER  1, TIME INCREMENT  1.139E-02

  NUMBER OF EQUATIONS =       198     NUMBER OF RHS =    1
  NUMBER OF FLOATING PT. OPERATIONS =  1.12E+06

     CHECK POINT   START OF SOLVER    

     CHECK POINT  END OF SOLVER       

       ELAPSED USER TIME (SEC)      =   0.0000    
       ELAPSED SYSTEM TIME (SEC)    =   0.0000    
       ELAPSED TOTAL CPU TIME (SEC) =   0.0000    
       ELAPSED WALLCLOCK TIME (SEC) =          0

               CONVERGENCE CHECKS FOR EQUILIBRIUM ITERATION     1

   MAX. PENETRATION ERROR 2.09895E-18 AT NODE INSTANCE-SOIL.64 OF CONTACT PAIR 
   (ASSEMBLY_INSTANCE-SOIL_SURFACE-SOIL-Z0,ASSEMBLY_INSTANCE-SOLID_SURFACE-SOLID
   -Z1)
   MAX. CONTACT FORCE ERROR 302.308E-18   AT NODE INSTANCE-SOIL.46 OF CONTACT 
   PAIR 
   (ASSEMBLY_INSTANCE-SOIL_SURFACE-SOIL-Z0,ASSEMBLY_INSTANCE-SOLID_SURFACE-SOLID
   -Z1)
          THE CONTACT CONSTRAINTS HAVE CONVERGED.

 AVERAGE FORCE                      4.102E-03   TIME AVG. FORCE       4.102E-03
 LARGEST RESIDUAL FORCE            -8.674E-18   AT NODE         27   DOF  1
   INSTANCE: INSTANCE-SOIL                                                                   
 LARGEST INCREMENT OF DISP.         6.834E-05   AT NODE          1   DOF  1
   INSTANCE: INSTANCE-SOLID                                                                  
 LARGEST CORRECTION TO DISP.       -1.618E-17   AT NODE         64   DOF  3
   INSTANCE: INSTANCE-SOIL                                                                   
          THE FORCE     EQUILIBRIUM RESPONSE WAS LINEAR IN THIS INCREMENT

 AVERAGE MOMENT                      0.00       TIME AVG. MOMENT      1.000E-02
 ALL MOMENT    RESIDUALS ARE ZERO
 LARGEST INCREMENT OF ROTATION     -4.844E-39   AT NODE        217   DOF  4
   INSTANCE: INSTANCE-SOLID                                                                  
 LARGEST CORRECTION TO ROTATION    -2.422E-39   AT NODE        217   DOF  5
   INSTANCE: INSTANCE-SOLID                                                                  
          THERE IS ZERO MOMENT    EVERYWHERE
          TIME INCREMENT MAY NOW INCREASE TO    1.709E-02

 ITERATION SUMMARY FOR THE INCREMENT:   1 TOTAL ITERATIONS, OF WHICH
   0 ARE SEVERE DISCONTINUITY ITERATIONS AND  1 ARE EQUILIBRIUM ITERATIONS.

 TIME INCREMENT COMPLETED  1.139E-02,  FRACTION OF STEP COMPLETED  3.317E-02
 STEP TIME COMPLETED       3.317E-02,  TOTAL TIME COMPLETED         1.03    


  INCREMENT     9 STARTS. ATTEMPT NUMBER  1, TIME INCREMENT  1.709E-02

  NUMBER OF EQUATIONS =       198     NUMBER OF RHS =    1
  NUMBER OF FLOATING PT. OPERATIONS =  1.12E+06

     CHECK POINT   START OF SOLVER    

     CHECK POINT  END OF SOLVER       

       ELAPSED USER TIME (SEC)      =   0.0000    
       ELAPSED SYSTEM TIME (SEC)    =   0.0000    
       ELAPSED TOTAL CPU TIME (SEC) =   0.0000    
       ELAPSED WALLCLOCK TIME (SEC) =          0

               CONVERGENCE CHECKS FOR EQUILIBRIUM ITERATION     1

   MAX. PENETRATION ERROR -2.92444E-18 AT NODE INSTANCE-SOIL.62 OF CONTACT PAIR 
   (ASSEMBLY_INSTANCE-SOIL_SURFACE-SOIL-Z0,ASSEMBLY_INSTANCE-SOLID_SURFACE-SOLID
   -Z1)
   MAX. CONTACT FORCE ERROR -229.754E-18   AT NODE INSTANCE-SOIL.62 OF CONTACT 
   PAIR 
   (ASSEMBLY_INSTANCE-SOIL_SURFACE-SOIL-Z0,ASSEMBLY_INSTANCE-SOLID_SURFACE-SOLID
   -Z1)
          THE CONTACT CONSTRAINTS HAVE CONVERGED.

 AVERAGE FORCE                      4.102E-03   TIME AVG. FORCE       4.102E-03
 LARGEST RESIDUAL FORCE            -6.559E-18   AT NODE         46   DOF  3
   INSTANCE: INSTANCE-SOIL                                                                   
 LARGEST INCREMENT OF DISP.         1.025E-04   AT NODE          1   DOF  1
   INSTANCE: INSTANCE-SOLID                                                                  
 LARGEST CORRECTION TO DISP.       -1.762E-17   AT NODE         13   DOF  3
   INSTANCE: INSTANCE-SOIL                                                                   
          THE FORCE     EQUILIBRIUM RESPONSE WAS LINEAR IN THIS INCREMENT

 AVERAGE MOMENT                      0.00       TIME AVG. MOMENT      1.000E-02
 ALL MOMENT    RESIDUALS ARE ZERO
 LARGEST INCREMENT OF ROTATION     -4.844E-39   AT NODE        217   DOF  4
   INSTANCE: INSTANCE-SOLID                                                                  
 LARGEST CORRECTION TO ROTATION    -2.422E-39   AT NODE        217   DOF  5
   INSTANCE: INSTANCE-SOLID                                                                  
          THERE IS ZERO MOMENT    EVERYWHERE
          TIME INCREMENT MAY NOW INCREASE TO    2.563E-02

 ITERATION SUMMARY FOR THE INCREMENT:   1 TOTAL ITERATIONS, OF WHICH
   0 ARE SEVERE DISCONTINUITY ITERATIONS AND  1 ARE EQUILIBRIUM ITERATIONS.

 TIME INCREMENT COMPLETED  1.709E-02,  FRACTION OF STEP COMPLETED  5.026E-02
 STEP TIME COMPLETED       5.026E-02,  TOTAL TIME COMPLETED         1.05    


  INCREMENT    10 STARTS. ATTEMPT NUMBER  1, TIME INCREMENT  2.563E-02

  NUMBER OF EQUATIONS =       198     NUMBER OF RHS =    1
  NUMBER OF FLOATING PT. OPERATIONS =  1.12E+06

     CHECK POINT   START OF SOLVER    

     CHECK POINT  END OF SOLVER       

       ELAPSED USER TIME (SEC)      =   0.0000    
       ELAPSED SYSTEM TIME (SEC)    =   0.0000    
       ELAPSED TOTAL CPU TIME (SEC) =   0.0000    
       ELAPSED WALLCLOCK TIME (SEC) =          0

               CONVERGENCE CHECKS FOR EQUILIBRIUM ITERATION     1

   MAX. PENETRATION ERROR 2.34798E-18 AT NODE INSTANCE-SOIL.29 OF CONTACT PAIR 
   (ASSEMBLY_INSTANCE-SOIL_SURFACE-SOIL-Z0,ASSEMBLY_INSTANCE-SOLID_SURFACE-SOLID
   -Z1)
   MAX. CONTACT FORCE ERROR -174.540E-18   AT NODE INSTANCE-SOIL.31 OF CONTACT 
   PAIR 
   (ASSEMBLY_INSTANCE-SOIL_SURFACE-SOIL-Z0,ASSEMBLY_INSTANCE-SOLID_SURFACE-SOLID
   -Z1)
          THE CONTACT CONSTRAINTS HAVE CONVERGED.

 AVERAGE FORCE                      4.102E-03   TIME AVG. FORCE       4.102E-03
 LARGEST RESIDUAL FORCE            -7.806E-18   AT NODE         38   DOF  3
   INSTANCE: INSTANCE-SOIL                                                                   
 LARGEST INCREMENT OF DISP.         1.538E-04   AT NODE          1   DOF  1
   INSTANCE: INSTANCE-SOLID                                                                  
 LARGEST CORRECTION TO DISP.        2.333E-17   AT NODE         29   DOF  3
   INSTANCE: INSTANCE-SOIL                                                                   
          THE FORCE     EQUILIBRIUM RESPONSE WAS LINEAR IN THIS INCREMENT

 AVERAGE MOMENT                      0.00       TIME AVG. MOMENT      1.000E-02
 ALL MOMENT    RESIDUALS ARE ZERO
 LARGEST INCREMENT OF ROTATION     -4.844E-39   AT NODE        217   DOF  4
   INSTANCE: INSTANCE-SOLID                                                                  
 LARGEST CORRECTION TO ROTATION    -2.422E-39   AT NODE        217   DOF  5
   INSTANCE: INSTANCE-SOLID                                                                  
          THERE IS ZERO MOMENT    EVERYWHERE
          TIME INCREMENT MAY NOW INCREASE TO    3.844E-02

 ITERATION SUMMARY FOR THE INCREMENT:   1 TOTAL ITERATIONS, OF WHICH
   0 ARE SEVERE DISCONTINUITY ITERATIONS AND  1 ARE EQUILIBRIUM ITERATIONS.

 TIME INCREMENT COMPLETED  2.563E-02,  FRACTION OF STEP COMPLETED  7.589E-02
 STEP TIME COMPLETED       7.589E-02,  TOTAL TIME COMPLETED         1.08    


  INCREMENT    11 STARTS. ATTEMPT NUMBER  1, TIME INCREMENT  3.844E-02

  NUMBER OF EQUATIONS =       198     NUMBER OF RHS =    1
  NUMBER OF FLOATING PT. OPERATIONS =  1.12E+06

     CHECK POINT   START OF SOLVER    

     CHECK POINT  END OF SOLVER       

       ELAPSED USER TIME (SEC)      =   0.0000    
       ELAPSED SYSTEM TIME (SEC)    =   0.0000    
       ELAPSED TOTAL CPU TIME (SEC) =   0.0000    
       ELAPSED WALLCLOCK TIME (SEC) =          0

               CONVERGENCE CHECKS FOR EQUILIBRIUM ITERATION     1

   MAX. PENETRATION ERROR 3.00697E-18 AT NODE INSTANCE-SOIL.13 OF CONTACT PAIR 
   (ASSEMBLY_INSTANCE-SOIL_SURFACE-SOIL-Z0,ASSEMBLY_INSTANCE-SOLID_SURFACE-SOLID
   -Z1)
   MAX. CONTACT FORCE ERROR 313.944E-18   AT NODE INSTANCE-SOIL.47 OF CONTACT 
   PAIR 
   (ASSEMBLY_INSTANCE-SOIL_SURFACE-SOIL-Z0,ASSEMBLY_INSTANCE-SOLID_SURFACE-SOLID
   -Z1)
          THE CONTACT CONSTRAINTS HAVE CONVERGED.

 AVERAGE FORCE                      4.102E-03   TIME AVG. FORCE       4.102E-03
 LARGEST RESIDUAL FORCE            -9.206E-18   AT NODE         31   DOF  1
   INSTANCE: INSTANCE-SOIL                                                                   
 LARGEST INCREMENT OF DISP.         2.307E-04   AT NODE          1   DOF  1
   INSTANCE: INSTANCE-SOLID                                                                  
 LARGEST CORRECTION TO DISP.       -1.874E-17   AT NODE         29   DOF  3
   INSTANCE: INSTANCE-SOIL                                                                   
          THE FORCE     EQUILIBRIUM RESPONSE WAS LINEAR IN THIS INCREMENT

 AVERAGE MOMENT                      0.00       TIME AVG. MOMENT      1.000E-02
 ALL MOMENT    RESIDUALS ARE ZERO
 LARGEST INCREMENT OF ROTATION     -4.844E-39   AT NODE        217   DOF  4
   INSTANCE: INSTANCE-SOLID                                                                  
 LARGEST CORRECTION TO ROTATION    -2.422E-39   AT NODE        217   DOF  5
   INSTANCE: INSTANCE-SOLID                                                                  
          THERE IS ZERO MOMENT    EVERYWHERE
          TIME INCREMENT MAY NOW INCREASE TO    5.767E-02

 ITERATION SUMMARY FOR THE INCREMENT:   1 TOTAL ITERATIONS, OF WHICH
   0 ARE SEVERE DISCONTINUITY ITERATIONS AND  1 ARE EQUILIBRIUM ITERATIONS.

 TIME INCREMENT COMPLETED  3.844E-02,  FRACTION OF STEP COMPLETED  0.114    
 STEP TIME COMPLETED       0.114    ,  TOTAL TIME COMPLETED         1.11    


  INCREMENT    12 STARTS. ATTEMPT NUMBER  1, TIME INCREMENT  5.767E-02

  NUMBER OF EQUATIONS =       198     NUMBER OF RHS =    1
  NUMBER OF FLOATING PT. OPERATIONS =  1.12E+06

     CHECK POINT   START OF SOLVER    

     CHECK POINT  END OF SOLVER       

       ELAPSED USER TIME (SEC)      =   0.0000    
       ELAPSED SYSTEM TIME (SEC)    =   0.0000    
       ELAPSED TOTAL CPU TIME (SEC) =   0.0000    
       ELAPSED WALLCLOCK TIME (SEC) =          0

               CONVERGENCE CHECKS FOR EQUILIBRIUM ITERATION     1

   MAX. PENETRATION ERROR -1.99513E-18 AT NODE INSTANCE-SOIL.45 OF CONTACT PAIR 
   (ASSEMBLY_INSTANCE-SOIL_SURFACE-SOIL-Z0,ASSEMBLY_INSTANCE-SOLID_SURFACE-SOLID
   -Z1)
   MAX. CONTACT FORCE ERROR -313.488E-18   AT NODE INSTANCE-SOIL.46 OF CONTACT 
   PAIR 
   (ASSEMBLY_INSTANCE-SOIL_SURFACE-SOIL-Z0,ASSEMBLY_INSTANCE-SOLID_SURFACE-SOLID
   -Z1)
          THE CONTACT CONSTRAINTS HAVE CONVERGED.

 AVERAGE FORCE                      4.102E-03   TIME AVG. FORCE       4.102E-03
 LARGEST RESIDUAL FORCE            -9.541E-18   AT NODE         42   DOF  1
   INSTANCE: INSTANCE-SOIL                                                                   
 LARGEST INCREMENT OF DISP.         3.460E-04   AT NODE          1   DOF  1
   INSTANCE: INSTANCE-SOLID                                                                  
 LARGEST CORRECTION TO DISP.       -1.707E-17   AT NODE         16   DOF  3
   INSTANCE: INSTANCE-SOIL                                                                   
          THE FORCE     EQUILIBRIUM RESPONSE WAS LINEAR IN THIS INCREMENT

 AVERAGE MOMENT                      0.00       TIME AVG. MOMENT      1.000E-02
 ALL MOMENT    RESIDUALS ARE ZERO
 LARGEST INCREMENT OF ROTATION     -4.844E-39   AT NODE        217   DOF  4
   INSTANCE: INSTANCE-SOLID                                                                  
 LARGEST CORRECTION TO ROTATION    -2.422E-39   AT NODE        217   DOF  5
   INSTANCE: INSTANCE-SOLID                                                                  
          THERE IS ZERO MOMENT    EVERYWHERE
          TIME INCREMENT MAY NOW INCREASE TO    8.650E-02

 ITERATION SUMMARY FOR THE INCREMENT:   1 TOTAL ITERATIONS, OF WHICH
   0 ARE SEVERE DISCONTINUITY ITERATIONS AND  1 ARE EQUILIBRIUM ITERATIONS.

 TIME INCREMENT COMPLETED  5.767E-02,  FRACTION OF STEP COMPLETED  0.172    
 STEP TIME COMPLETED       0.172    ,  TOTAL TIME COMPLETED         1.17    


  INCREMENT    13 STARTS. ATTEMPT NUMBER  1, TIME INCREMENT  8.650E-02

  NUMBER OF EQUATIONS =       198     NUMBER OF RHS =    1
  NUMBER OF FLOATING PT. OPERATIONS =  1.12E+06

     CHECK POINT   START OF SOLVER    

     CHECK POINT  END OF SOLVER       

       ELAPSED USER TIME (SEC)      =   0.0000    
       ELAPSED SYSTEM TIME (SEC)    =   0.0000    
       ELAPSED TOTAL CPU TIME (SEC) =   0.0000    
       ELAPSED WALLCLOCK TIME (SEC) =          0

               CONVERGENCE CHECKS FOR EQUILIBRIUM ITERATION     1

   MAX. PENETRATION ERROR -2.91888E-18 AT NODE INSTANCE-SOIL.61 OF CONTACT PAIR 
   (ASSEMBLY_INSTANCE-SOIL_SURFACE-SOIL-Z0,ASSEMBLY_INSTANCE-SOLID_SURFACE-SOLID
   -Z1)
   MAX. CONTACT FORCE ERROR 166.555E-18   AT NODE INSTANCE-SOIL.30 OF CONTACT 
   PAIR 
   (ASSEMBLY_INSTANCE-SOIL_SURFACE-SOIL-Z0,ASSEMBLY_INSTANCE-SOLID_SURFACE-SOLID
   -Z1)
          THE CONTACT CONSTRAINTS HAVE CONVERGED.

 AVERAGE FORCE                      4.102E-03   TIME AVG. FORCE       4.102E-03
 LARGEST RESIDUAL FORCE            -7.806E-18   AT NODE         38   DOF  1
   INSTANCE: INSTANCE-SOIL                                                                   
 LARGEST INCREMENT OF DISP.         5.190E-04   AT NODE          1   DOF  1
   INSTANCE: INSTANCE-SOLID                                                                  
 LARGEST CORRECTION TO DISP.       -1.258E-17   AT NODE         29   DOF  3
   INSTANCE: INSTANCE-SOIL                                                                   
          THE FORCE     EQUILIBRIUM RESPONSE WAS LINEAR IN THIS INCREMENT

 AVERAGE MOMENT                      0.00       TIME AVG. MOMENT      1.000E-02
 ALL MOMENT    RESIDUALS ARE ZERO
 LARGEST INCREMENT OF ROTATION     -4.844E-39   AT NODE        217   DOF  4
   INSTANCE: INSTANCE-SOLID                                                                  
 LARGEST CORRECTION TO ROTATION    -2.422E-39   AT NODE        217   DOF  5
   INSTANCE: INSTANCE-SOLID                                                                  
          THERE IS ZERO MOMENT    EVERYWHERE
          TIME INCREMENT MAY NOW INCREASE TO    0.130    

 ITERATION SUMMARY FOR THE INCREMENT:   1 TOTAL ITERATIONS, OF WHICH
   0 ARE SEVERE DISCONTINUITY ITERATIONS AND  1 ARE EQUILIBRIUM ITERATIONS.

 TIME INCREMENT COMPLETED  8.650E-02,  FRACTION OF STEP COMPLETED  0.258    
 STEP TIME COMPLETED       0.258    ,  TOTAL TIME COMPLETED         1.26    


  INCREMENT    14 STARTS. ATTEMPT NUMBER  1, TIME INCREMENT  0.130    

  NUMBER OF EQUATIONS =       198     NUMBER OF RHS =    1
  NUMBER OF FLOATING PT. OPERATIONS =  1.12E+06

     CHECK POINT   START OF SOLVER    

     CHECK POINT  END OF SOLVER       

       ELAPSED USER TIME (SEC)      =   0.0000    
       ELAPSED SYSTEM TIME (SEC)    =   0.0000    
       ELAPSED TOTAL CPU TIME (SEC) =   0.0000    
       ELAPSED WALLCLOCK TIME (SEC) =          0

               CONVERGENCE CHECKS FOR EQUILIBRIUM ITERATION     1

   MAX. PENETRATION ERROR 3.58464E-18 AT NODE INSTANCE-SOIL.61 OF CONTACT PAIR 
   (ASSEMBLY_INSTANCE-SOIL_SURFACE-SOIL-Z0,ASSEMBLY_INSTANCE-SOLID_SURFACE-SOLID
   -Z1)
   MAX. CONTACT FORCE ERROR 385.357E-18   AT NODE INSTANCE-SOIL.47 OF CONTACT 
   PAIR 
   (ASSEMBLY_INSTANCE-SOIL_SURFACE-SOIL-Z0,ASSEMBLY_INSTANCE-SOLID_SURFACE-SOLID
   -Z1)
          THE CONTACT CONSTRAINTS HAVE CONVERGED.

 AVERAGE FORCE                      4.102E-03   TIME AVG. FORCE       4.102E-03
 LARGEST RESIDUAL FORCE            -6.954E-18   AT NODE         31   DOF  2
   INSTANCE: INSTANCE-SOIL                                                                   
 LARGEST INCREMENT OF DISP.         7.785E-04   AT NODE          1   DOF  1
   INSTANCE: INSTANCE-SOLID                                                                  
 LARGEST CORRECTION TO DISP.        2.120E-17   AT NODE         29   DOF  3
   INSTANCE: INSTANCE-SOIL                                                                   
          THE FORCE     EQUILIBRIUM RESPONSE WAS LINEAR IN THIS INCREMENT

 AVERAGE MOMENT                      0.00       TIME AVG. MOMENT      1.000E-02
 ALL MOMENT    RESIDUALS ARE ZERO
 LARGEST INCREMENT OF ROTATION     -4.844E-39   AT NODE        217   DOF  4
   INSTANCE: INSTANCE-SOLID                                                                  
 LARGEST CORRECTION TO ROTATION    -2.422E-39   AT NODE        217   DOF  5
   INSTANCE: INSTANCE-SOLID                                                                  
          THERE IS ZERO MOMENT    EVERYWHERE
          TIME INCREMENT MAY NOW INCREASE TO    0.195    

 ITERATION SUMMARY FOR THE INCREMENT:   1 TOTAL ITERATIONS, OF WHICH
   0 ARE SEVERE DISCONTINUITY ITERATIONS AND  1 ARE EQUILIBRIUM ITERATIONS.

 TIME INCREMENT COMPLETED  0.130    ,  FRACTION OF STEP COMPLETED  0.388    
 STEP TIME COMPLETED       0.388    ,  TOTAL TIME COMPLETED         1.39    


  INCREMENT    15 STARTS. ATTEMPT NUMBER  1, TIME INCREMENT  0.195    

  NUMBER OF EQUATIONS =       198     NUMBER OF RHS =    1
  NUMBER OF FLOATING PT. OPERATIONS =  1.12E+06

     CHECK POINT   START OF SOLVER    

     CHECK POINT  END OF SOLVER       

       ELAPSED USER TIME (SEC)      =   0.0000    
       ELAPSED SYSTEM TIME (SEC)    =   0.0000    
       ELAPSED TOTAL CPU TIME (SEC) =   0.0000    
       ELAPSED WALLCLOCK TIME (SEC) =          0

               CONVERGENCE CHECKS FOR EQUILIBRIUM ITERATION     1

   MAX. PENETRATION ERROR -3.85061E-18 AT NODE INSTANCE-SOIL.29 OF CONTACT PAIR 
   (ASSEMBLY_INSTANCE-SOIL_SURFACE-SOIL-Z0,ASSEMBLY_INSTANCE-SOLID_SURFACE-SOLID
   -Z1)
   MAX. CONTACT FORCE ERROR -259.300E-18   AT NODE INSTANCE-SOIL.29 OF CONTACT 
   PAIR 
   (ASSEMBLY_INSTANCE-SOIL_SURFACE-SOIL-Z0,ASSEMBLY_INSTANCE-SOLID_SURFACE-SOLID
   -Z1)
          THE CONTACT CONSTRAINTS HAVE CONVERGED.

 AVERAGE FORCE                      4.061E-03   TIME AVG. FORCE       4.099E-03
 LARGEST RESIDUAL FORCE             1.231E-17   AT NODE         31   DOF  3
   INSTANCE: INSTANCE-SOIL                                                                   
 LARGEST INCREMENT OF DISP.         1.168E-03   AT NODE          1   DOF  1
   INSTANCE: INSTANCE-SOLID                                                                  
 LARGEST CORRECTION TO DISP.       -1.764E-17   AT NODE         29   DOF  3
   INSTANCE: INSTANCE-SOIL                                                                   
          THE FORCE     EQUILIBRIUM RESPONSE WAS LINEAR IN THIS INCREMENT

 AVERAGE MOMENT                      0.00       TIME AVG. MOMENT      1.000E-02
 ALL MOMENT    RESIDUALS ARE ZERO
 LARGEST INCREMENT OF ROTATION     -4.844E-39   AT NODE        217   DOF  4
   INSTANCE: INSTANCE-SOLID                                                                  
 LARGEST CORRECTION TO ROTATION    -2.422E-39   AT NODE        217   DOF  5
   INSTANCE: INSTANCE-SOLID                                                                  
          THERE IS ZERO MOMENT    EVERYWHERE
          TIME INCREMENT MAY NOW INCREASE TO    0.292    

 ITERATION SUMMARY FOR THE INCREMENT:   1 TOTAL ITERATIONS, OF WHICH
   0 ARE SEVERE DISCONTINUITY ITERATIONS AND  1 ARE EQUILIBRIUM ITERATIONS.

 TIME INCREMENT COMPLETED  0.195    ,  FRACTION OF STEP COMPLETED  0.583    
 STEP TIME COMPLETED       0.583    ,  TOTAL TIME COMPLETED         1.58    


  INCREMENT    16 STARTS. ATTEMPT NUMBER  1, TIME INCREMENT  0.292    

  NUMBER OF EQUATIONS =       198     NUMBER OF RHS =    1
  NUMBER OF FLOATING PT. OPERATIONS =  1.12E+06

     CHECK POINT   START OF SOLVER    

     CHECK POINT  END OF SOLVER       

       ELAPSED USER TIME (SEC)      =   0.0000    
       ELAPSED SYSTEM TIME (SEC)    =   0.0000    
       ELAPSED TOTAL CPU TIME (SEC) =   0.0000    
       ELAPSED WALLCLOCK TIME (SEC) =          0

               CONVERGENCE CHECKS FOR EQUILIBRIUM ITERATION     1

   MAX. PENETRATION ERROR 3.97767E-18 AT NODE INSTANCE-SOIL.61 OF CONTACT PAIR 
   (ASSEMBLY_INSTANCE-SOIL_SURFACE-SOIL-Z0,ASSEMBLY_INSTANCE-SOLID_SURFACE-SOLID
   -Z1)
   MAX. CONTACT FORCE ERROR -325.580E-18   AT NODE INSTANCE-SOIL.30 OF CONTACT 
   PAIR 
   (ASSEMBLY_INSTANCE-SOIL_SURFACE-SOIL-Z0,ASSEMBLY_INSTANCE-SOLID_SURFACE-SOLID
   -Z1)
          THE CONTACT CONSTRAINTS HAVE CONVERGED.

 AVERAGE FORCE                      4.061E-03   TIME AVG. FORCE       4.096E-03
 LARGEST RESIDUAL FORCE            -1.073E-17   AT NODE         31   DOF  3
   INSTANCE: INSTANCE-SOIL                                                                   
 LARGEST INCREMENT OF DISP.         1.752E-03   AT NODE          1   DOF  1
   INSTANCE: INSTANCE-SOLID                                                                  
 LARGEST CORRECTION TO DISP.        1.099E-17   AT NODE         48   DOF  3
   INSTANCE: INSTANCE-SOIL                                                                   
          THE FORCE     EQUILIBRIUM RESPONSE WAS LINEAR IN THIS INCREMENT

 AVERAGE MOMENT                      0.00       TIME AVG. MOMENT      1.000E-02
 ALL MOMENT    RESIDUALS ARE ZERO
 LARGEST INCREMENT OF ROTATION     -4.844E-39   AT NODE        217   DOF  4
   INSTANCE: INSTANCE-SOLID                                                                  
 LARGEST CORRECTION TO ROTATION    -2.422E-39   AT NODE        217   DOF  5
   INSTANCE: INSTANCE-SOLID                                                                  
          THERE IS ZERO MOMENT    EVERYWHERE

 ITERATION SUMMARY FOR THE INCREMENT:   1 TOTAL ITERATIONS, OF WHICH
   0 ARE SEVERE DISCONTINUITY ITERATIONS AND  1 ARE EQUILIBRIUM ITERATIONS.

 TIME INCREMENT COMPLETED  0.292    ,  FRACTION OF STEP COMPLETED  0.875    
 STEP TIME COMPLETED       0.875    ,  TOTAL TIME COMPLETED         1.87    


  INCREMENT    17 STARTS. ATTEMPT NUMBER  1, TIME INCREMENT  0.125    

  NUMBER OF EQUATIONS =       198     NUMBER OF RHS =    1
  NUMBER OF FLOATING PT. OPERATIONS =  1.12E+06

     CHECK POINT   START OF SOLVER    

     CHECK POINT  END OF SOLVER       

       ELAPSED USER TIME (SEC)      =   0.0000    
       ELAPSED SYSTEM TIME (SEC)    =   0.0000    
       ELAPSED TOTAL CPU TIME (SEC) =   0.0000    
       ELAPSED WALLCLOCK TIME (SEC) =          0

               CONVERGENCE CHECKS FOR EQUILIBRIUM ITERATION     1

   MAX. PENETRATION ERROR -1.57693E-18 AT NODE INSTANCE-SOIL.32 OF CONTACT PAIR 
   (ASSEMBLY_INSTANCE-SOIL_SURFACE-SOIL-Z0,ASSEMBLY_INSTANCE-SOLID_SURFACE-SOLID
   -Z1)
   MAX. CONTACT FORCE ERROR 128.224E-18   AT NODE INSTANCE-SOIL.30 OF CONTACT 
   PAIR 
   (ASSEMBLY_INSTANCE-SOIL_SURFACE-SOIL-Z0,ASSEMBLY_INSTANCE-SOLID_SURFACE-SOLID
   -Z1)
          THE CONTACT CONSTRAINTS HAVE CONVERGED.

 AVERAGE FORCE                      4.061E-03   TIME AVG. FORCE       4.094E-03
 LARGEST RESIDUAL FORCE            -4.337E-18   AT NODE         23   DOF  2
   INSTANCE: INSTANCE-SOIL                                                                   
 LARGEST INCREMENT OF DISP.         7.513E-04   AT NODE          1   DOF  1
   INSTANCE: INSTANCE-SOLID                                                                  
 LARGEST CORRECTION TO DISP.       -3.453E-18   AT NODE         32   DOF  3
   INSTANCE: INSTANCE-SOIL                                                                   
          THE FORCE     EQUILIBRIUM RESPONSE WAS LINEAR IN THIS INCREMENT

 AVERAGE MOMENT                      0.00       TIME AVG. MOMENT      1.000E-02
 ALL MOMENT    RESIDUALS ARE ZERO
 LARGEST INCREMENT OF ROTATION     -4.844E-39   AT NODE        217   DOF  4
   INSTANCE: INSTANCE-SOLID                                                                  
 LARGEST CORRECTION TO ROTATION    -2.766E-39   AT NODE        217   DOF  4
   INSTANCE: INSTANCE-SOLID                                                                  
          THERE IS ZERO MOMENT    EVERYWHERE

 ITERATION SUMMARY FOR THE INCREMENT:   1 TOTAL ITERATIONS, OF WHICH
   0 ARE SEVERE DISCONTINUITY ITERATIONS AND  1 ARE EQUILIBRIUM ITERATIONS.

 TIME INCREMENT COMPLETED  0.125    ,  FRACTION OF STEP COMPLETED   1.00    
 STEP TIME COMPLETED        1.00    ,  TOTAL TIME COMPLETED         2.00    


          THE ANALYSIS HAS BEEN COMPLETED



     ANALYSIS SUMMARY:
     TOTAL OF         34  INCREMENTS
                       0  CUTBACKS IN AUTOMATIC INCREMENTATION
                      34  ITERATIONS INCLUDING CONTACT ITERATIONS IF PRESENT
                      34  PASSES THROUGH THE EQUATION SOLVER OF WHICH 
                      34  INVOLVE MATRIX DECOMPOSITION, INCLUDING
                       0  DECOMPOSITION(S) OF THE MASS MATRIX
                       1  REORDERING OF EQUATIONS TO MINIMIZE WAVEFRONT
                       0  ADDITIONAL RESIDUAL EVALUATIONS FOR LINE SEARCHES
                       0  ADDITIONAL OPERATOR EVALUATIONS FOR LINE SEARCHES
                       3  WARNING MESSAGES DURING USER INPUT PROCESSING
                       0  WARNING MESSAGES DURING ANALYSIS
                       0  ANALYSIS WARNINGS ARE NUMERICAL PROBLEM MESSAGES
                       0  ANALYSIS WARNINGS ARE NEGATIVE EIGENVALUE MESSAGES
                       0  ERROR MESSAGES



     JOB TIME SUMMARY
       USER TIME (SEC)      =  0.70000    
       SYSTEM TIME (SEC)    =  0.10000    
       TOTAL CPU TIME (SEC) =  0.80000    
       WALLCLOCK TIME (SEC) =          1
