 Abaqus/Standard 2021                  DATE 29-Dec-2021 TIME 15:44:29
 SUMMARY OF JOB INFORMATION:
 STEP  INC ATT SEVERE EQUIL TOTAL  TOTAL      STEP       INC OF       DOF    IF
               DISCON ITERS ITERS  TIME/    TIME/LPF    TIME/LPF    MONITOR RIKS
               ITERS               FREQ
   1     1   1     0     1     1  0.00100    0.00100    0.001000  
   1     2   1     0     1     1  0.00200    0.00200    0.001000  
   1     3   1     0     1     1  0.00350    0.00350    0.001500  
   1     4   1     0     1     1  0.00575    0.00575    0.002250  
   1     5   1     0     1     1  0.00913    0.00913    0.003375  
   1     6   1     0     1     1  0.0142     0.0142     0.005063  
   1     7   1     0     1     1  0.0218     0.0218     0.007594  
   1     8   1     0     1     1  0.0332     0.0332     0.01139   
   1     9   1     0     1     1  0.0503     0.0503     0.01709   
   1    10   1     0     1     1  0.0759     0.0759     0.02563   
   1    11   1     0     1     1  0.114      0.114      0.03844   
   1    12   1     0     1     1  0.172      0.172      0.05767   
   1    13   1     0     1     1  0.258      0.258      0.08650   
   1    14   1     0     1     1  0.388      0.388      0.1297    
   1    15   1     0     1     1  0.583      0.583      0.1946    
   1    16   1     0     1     1  0.875      0.875      0.2919    
   1    17   1     0     1     1  1.00       1.00       0.1252    
   2     1   1     0     1     1  1.00       0.00100    0.001000  
   2     2   1     0     1     1  1.00       0.00200    0.001000  
   2     3   1     0     1     1  1.00       0.00350    0.001500  
   2     4   1     0     1     1  1.01       0.00575    0.002250  
   2     5   1     0     1     1  1.01       0.00913    0.003375  
   2     6   1     0     1     1  1.01       0.0142     0.005063  
   2     7   1     0     1     1  1.02       0.0218     0.007594  
   2     8   1     0     1     1  1.03       0.0332     0.01139   
   2     9   1     0     1     1  1.05       0.0503     0.01709   
   2    10   1     0     1     1  1.08       0.0759     0.02563   
   2    11   1     0     1     1  1.11       0.114      0.03844   
   2    12   1     0     1     1  1.17       0.172      0.05767   
   2    13   1     0     1     1  1.26       0.258      0.08650   
   2    14   1     0     1     1  1.39       0.388      0.1297    
   2    15   1     0     1     1  1.58       0.583      0.1946    
   2    16   1     0     1     1  1.87       0.875      0.2919    
   2    17   1     0     1     1  2.00       1.00       0.1252    
                          
 THE ANALYSIS HAS COMPLETED SUCCESSFULLY
